New Circuit.1_ALPE_1 basekv=23.1 pu=1 bus1=1_ALPE_1 r1=0 x1=0.0001
