New Loadshape.MT1_DO 24 1.0 mult=(0.765762004 0.768267223 0.709394572 0.668058455 0.67223382 0.670981211 0.681837161 0.687265136 0.671398747 0.835073069 0.873903967 1 0.999164927 0.976617954 0.745302714 0.678914405 0.627139875 0.451356994 0.279749478 0.053862213 0.050521921 0.037578288 0.034237996 0.046764092 )
New Loadshape.MT1_DU 24 1.0 mult=(0.967659884 0.968386628 0.980377907 0.979651163 0.988008721 0.98255814 0.995276163 0.990552326 1 0.914607558 0.896802326 0.867005814 0.839752907 0.844476744 0.832485465 0.885174419 0.825218023 0.60065407 0.105741279 0.047601744 0.011627907 0.556322674 0.702398256 0.751090116 )
New Loadshape.MT1_SA 24 1.0 mult=(0.992349235 0.826282628 0.869936994 0.906840684 0.858235824 0.797029703 0.755175518 0.685418542 0.779477948 0.789828983 0.695319532 0.736273627 0.792979298 0.783078308 0.766876688 0.762826283 0.692169217 0.658865887 0.793429343 0.786678668 0.837533753 0.98919892 1 0.874887489 )
New Loadshape.MT2_DO 24 1.0 mult=(0.428198433 0.386422977 0.373368146 0.496083551 0.793733681 0.851174935 0.723237598 0.710182768 0.911227154 0.864229765 1 0.843342037 0.7154047 0.663185379 0.569190601 0.396866841 0.349869452 0.302872063 0.313315927 0.292428198 0.300261097 0.37075718 0.412532637 0.394255875 )
New Loadshape.MT2_DU 24 1.0 mult=(0.106167846 0.10768453 0.091001011 0.089989889 0.101112235 0.121334681 0.240141557 0.637512639 0.97421638 0.970171891 0.904954499 0.549544995 0.462588473 0.871081901 1 0.988877654 0.791203236 0.47826087 0.258847321 0.176440849 0.151668352 0.152173913 0.15065723 0.141051567 )
New Loadshape.MT2_SA 24 1.0 mult=(0.375 0.24754902 0.24754902 0.343137255 0.448529412 0.453431373 0.583333333 0.68872549 0.941176471 1 0.882352941 1 0.845588235 0.916666667 0.914215686 0.759803922 0.615196078 0.534313725 0.504901961 0.463235294 0.43627451 0.392156863 0.428921569 0.441176471 )
New Loadshape.MT3_DO 24 1.0 mult=(1 0.990809879 0.976450316 0.944859276 0.893164848 0.8914417 0.878230902 0.893164848 1 0.931648478 0.877082137 0.824238943 0.712808731 0.66053992 0.594485928 0.524411258 0.619758759 0.497415279 0.345203906 0.354394026 0.30327398 0.298104538 0.299253303 0.286042504 )
New Loadshape.MT3_DU 24 1.0 mult=(0.888888889 0.788751715 0.724965706 0.709876543 0.663237311 0.799039781 0.791495199 0.770233196 0.818930041 0.855967078 0.946502058 0.903292181 0.862825789 0.84430727 0.893004115 0.949931413 0.965020576 0.984910837 0.861454047 0.917009602 1 0.971193416 0.924554184 0.904663923 )
New Loadshape.MT3_SA 24 1.0 mult=(0.884353741 0.68537415 0.658730159 0.571995465 0.512471655 0.511337868 0.624716553 0.790816327 0.80952381 0.793650794 0.853174603 0.777777778 0.693310658 0.719387755 0.714285714 0.713718821 0.689342404 0.802154195 0.975623583 0.969387755 1 0.984693878 0.995464853 0.98015873 )
New Loadshape.MT4_DO 24 1.0 mult=(1 0.992412747 0.877086495 0.875569044 0.876327769 0.877086495 0.878603945 0.880121396 0.810318665 0.779969651 0.777693475 0.71168437 0.637329287 0.640364188 0.15629742 0.283004552 0.427921093 0.425644917 0.421092564 0.216995448 0.003034901 0 0 0 )
New Loadshape.MT4_DU 24 1.0 mult=(1 0.995159059 0.986860304 0.985477178 0.966113416 0.868603043 0.86791148 0.692946058 0.522130014 0.246196404 0.010373444 0.004840941 0.002766252 0.004840941 0.017289073 0.006915629 0.026279391 0.035961272 0.036652835 0.059474412 0.047026279 0.552558783 0.86791148 0.782157676 )
New Loadshape.MT4_SA 24 1.0 mult=(0.732394366 0.732394366 0.729264476 0.728482003 0.727699531 0.729264476 0.730829421 0.733959311 0.834115806 0.96400626 0.953834116 0.951486698 0.948356808 0.812206573 0.794209703 0.759780908 0.743348983 0.782472613 0.714397496 0.713615023 0.712050078 0.806729264 0.807511737 1 )
New Loadshape.MT5_DO 24 1.0 mult=(0.651648352 0.650549451 0.643956044 0.648351648 0.435164835 0.391208791 0.615384615 0.625274725 0.832967033 0.840659341 0.72967033 0.83956044 0.83956044 0.841758242 0.601098901 0.673626374 0.872527473 1 0.776923077 0.685714286 0.504395604 0.568131868 0.568131868 0.567032967 )
New Loadshape.MT5_DU 24 1.0 mult=(0.935258964 0.986055777 1 0.812749004 0.556772908 0.490039841 0.493027888 0.474103586 0.429282869 0.442231076 0.433266932 0.429282869 0.430278884 0.336653386 0.278884462 0.258964143 0.15438247 0.11752988 0.00498008 0.005976096 0.005976096 0.003984064 0.00498008 0.096613546 )
New Loadshape.MT5_SA 24 1.0 mult=(0.700796359 0.700796359 0.699658703 0.696245734 0.696245734 0.696245734 0.696245734 0.696245734 0.816837315 0.974971559 1 0.947667804 0.95221843 0.96814562 0.883959044 0.82480091 0.838452787 0.676905575 0.671217292 0.672354949 0.676905575 0.791808874 0.678043231 0.676905575 )
New Loadshape.MT6_DO 24 1.0 mult=(0.779718583 0.777777778 0.873847647 1 1 0.88209607 0.762251334 0.755458515 0.754488113 0.686074721 0.495875788 0.440562834 0.43571082 0.431829209 0.2498787 0.12130034 0.122755944 0.123726346 0.120329937 0.11062591 0.116448326 0.120815138 0.115477923 0.114992722 )
New Loadshape.MT6_DU 24 1.0 mult=(0.007036747 0.007036747 0.007818608 0.007427678 0.023064894 0.010555121 0.007036747 0.006645817 0.05629398 0.205629398 0.173964034 0.19781079 0.255277561 0.271305708 0.27365129 0.340500391 0.274433151 0.247068022 0.011336982 0.016810008 0.023455825 0.619233776 0.911258796 1 )
New Loadshape.MT6_SA 24 1.0 mult=(1 0.950997398 0.996097138 0.989158716 0.88725065 0.869037294 0.861665221 0.819601041 0.908065915 0.904163053 0.937987858 0.923677363 0.792714657 0.742844753 0.549869905 0.421942758 0.398959237 0.400260191 0.373807459 0.471812663 0.476582827 0.659150043 0.6934085 0.696444059 )
