New Loadshape.CO1_DO 24 1.0 mult=(0.927762983 0.853718851 0.827610805 0.784192505 0.742628876 0.712003044 0.676241202 0.773159597 0.763838691 0.808968994 0.914352292 0.919345634 0.897184706 0.908217615 0.907456724 0.870125547 0.893903367 0.91939319 0.95691459 0.970087502 1 0.973654175 0.932090546 0.887340689 )
New Loadshape.CO1_DU 24 1.0 mult=(0.839164541 0.795562828 0.759228067 0.744886664 0.708166899 0.697916165 0.738485971 0.787044612 0.810770489 0.843832716 0.898214544 1 0.953607007 0.904326483 0.832619472 0.854997834 0.915539728 0.906540257 0.913229703 0.85600847 0.902257086 0.866162953 0.872467395 0.842244574 )
New Loadshape.CO1_SA 24 1.0 mult=(0.794105495 0.726392141 0.739429831 0.691043474 0.675067713 0.663590874 0.667676629 0.742092457 0.825552036 0.894734426 0.977184043 1 0.992930267 0.905430841 0.892209521 0.841940963 0.89014369 0.925767801 0.919845751 0.951384107 0.937382362 0.890097783 0.926915485 0.884680714 )
New Loadshape.CO2_DO 24 1.0 mult=(0.865983692 0.840685762 0.839222245 0.717332218 0.834204474 0.732594606 0.615931424 0.654610077 0.734894418 0.791553418 0.80263433 0.842149279 0.895044951 0.888563663 0.881037006 0.910516412 0.910516412 0.897135689 0.84110391 0.935814342 1 0.882291449 0.860965921 0.857202593 )
New Loadshape.CO2_DU 24 1.0 mult=(0.125436255 0.119254545 0.118319305 0.123885125 0.12402199 0.099865417 0.130979265 0.497023199 0.851730195 0.898971236 0.952530852 0.754830174 0.379616323 0.822053423 1 0.987887497 0.891055909 0.404023814 0.192887611 0.205775679 0.208832318 0.182873697 0.158374963 0.134149958 )
New Loadshape.CO2_SA 24 1.0 mult=(0.485331438 0.473962034 0.480154299 0.493655466 0.491117653 0.418942239 0.374885798 0.571617095 0.939397016 1 0.910262917 0.769972592 0.449903563 0.49538118 0.524413765 0.520150239 0.518627551 0.46178053 0.450208101 0.477616486 0.527256116 0.512536798 0.514973099 0.477413461 )
New Loadshape.CO3_DO 24 1.0 mult=(0.421913043 0.302086957 0.226956522 0.216347826 0.312521739 0.522086957 0.743130435 0.736869565 0.758 0.847652174 0.845913043 1 0.973217391 0.919391304 0.886347826 0.771478261 0.784434783 0.746782609 0.75826087 0.87226087 0.817304348 0.731304348 0.512434783 0.525826087 )
New Loadshape.CO3_DU 24 1.0 mult=(0.32847946 0.210147149 0.168301655 0.145079706 0.275367872 0.526747394 0.624463519 0.822808093 0.841661557 0.91370325 0.918148375 0.997394237 0.872394237 0.949800736 0.924739424 0.922900061 0.970646842 1 0.939071122 0.931560392 0.837216432 0.763412017 0.688917842 0.466354997 )
New Loadshape.CO3_SA 24 1.0 mult=(0.638774976 0.389843818 0.19675421 0.237588343 0.298665038 0.501090655 0.769566355 0.762062647 0.782392461 0.928191257 0.895995114 1 0.823750109 0.85010034 0.991798272 0.907512433 0.994503097 0.980019196 0.905767385 0.955588518 0.842683884 0.708664165 0.48250589 0.557630224 )
New Loadshape.CO4_DO 24 1.0 mult=(0.688755728 0.650334861 0.679473622 0.612266479 0.627893315 0.647397486 0.628363295 0.687345788 0.693690518 0.814240395 0.875690283 0.955821878 1 0.969333803 0.815885325 0.745975796 0.760075197 0.772177182 0.733756315 0.72682411 0.685348373 0.668311597 0.697332863 0.703912584 )
New Loadshape.CO4_DU 24 1.0 mult=(0.191528824 0.184072069 0.182065937 0.189333434 0.188084333 0.235095954 0.239448881 0.486543775 0.763314281 0.868125213 0.935765926 1 0.942200689 0.983307468 0.876679662 0.804837428 0.683863886 0.529429577 0.36939324 0.28960218 0.238502593 0.217911352 0.228623339 0.220258148 )
New Loadshape.CO4_SA 24 1.0 mult=(0.412342216 0.405173757 0.398005298 0.385148823 0.399485741 0.471793673 0.5561789 0.613448652 0.750194795 0.890213495 0.957924264 1 0.912420134 0.927146642 0.790634253 0.719884681 0.68988624 0.629110176 0.607059374 0.588670718 0.584229391 0.56685367 0.548776687 0.481689263 )
New Loadshape.CO5_DO 24 1.0 mult=(0.625935711 0.607441656 0.592910612 0.599075297 0.579480405 0.599955967 0.65896081 0.771466314 0.879348305 0.953985029 1 0.856450903 0.772787318 0.791501541 0.79898723 0.774548657 0.763099956 0.7553941 0.713121973 0.667767503 0.664244826 0.642448261 0.610083664 0.568031704 )
New Loadshape.CO5_DU 24 1.0 mult=(0.307799975 0.302583026 0.337701998 0.331848836 0.350171778 0.363277771 0.466217076 0.581880646 0.766764219 0.784578191 0.83636595 0.890062349 0.786614073 0.861432752 0.885863341 0.90545871 0.932052424 1 0.822623743 0.643084362 0.455274208 0.38770836 0.350553506 0.334266446 )
New Loadshape.CO5_SA 24 1.0 mult=(0.468647999 0.478268339 0.43995877 0.455763614 0.461604535 0.502147397 0.592509878 0.793678062 0.886273836 0.924411613 1 0.988318158 0.941934376 0.956193094 0.989864284 0.945370211 0.92990895 0.90104793 0.853461605 0.779591136 0.630991239 0.557979729 0.521559869 0.516921491 )
New Loadshape.CO6_DO 24 1.0 mult=(0.790744467 0.699195171 0.717303823 0.687122736 0.646881288 0.675050302 0.63028169 0.691649899 0.652414487 0.814889336 0.783702213 1 0.935613682 0.872736419 0.708752515 0.761569416 0.67806841 0.750503018 0.657444668 0.734406439 0.717806841 0.752012072 0.686619718 0.648390342 )
New Loadshape.CO6_DU 24 1.0 mult=(0.5566293 0.499420178 0.480092772 0.441051411 0.453034403 0.413219946 0.501739467 0.54232702 0.551990723 0.636644762 0.704677232 0.98763046 0.979126401 1 0.821414766 0.727483572 0.558562041 0.551217627 0.739080015 0.971395439 0.982991882 0.909934287 0.802473908 0.687669115 )
New Loadshape.CO6_SA 24 1.0 mult=(0.687022901 0.630444544 0.578805568 0.542433767 0.551414459 0.530758868 0.580152672 0.552312528 0.61338123 0.732824427 0.721598563 0.987876066 1 0.977997306 0.754827122 0.640772339 0.638976201 0.713515941 0.718006286 0.935339021 0.924113157 0.891333633 0.874270319 0.795689268 )
New Loadshape.CO7_DO 24 1.0 mult=(0.875994385 0.831539541 0.79129621 0.79784745 0.742161909 0.67103416 0.696771175 0.621431914 0.683668694 0.697707066 0.677117454 0.749181095 0.605989705 0.54094525 0.707533926 0.708469818 0.709405709 0.819372953 0.790360318 0.964436125 1 0.933551708 0.907346748 0.893776322 )
New Loadshape.CO7_DU 24 1.0 mult=(0.444538527 0.414902625 0.402483771 0.389500423 0.388653683 0.419700819 0.351114874 0.328252893 0.384984476 0.428168219 0.412926898 0.398814564 0.423934519 0.424781259 0.431272933 0.44764324 0.44510302 0.541349139 0.713237369 1 0.977138019 0.786621507 0.694044595 0.519616145 )
New Loadshape.CO7_SA 24 1.0 mult=(0.587240042 0.571378216 0.54635178 0.535072259 0.512160733 0.492421572 0.408530137 0.416989778 0.473739866 0.489954177 0.512160733 0.623898484 0.580895312 0.647162496 0.677476207 0.655974621 0.721536835 0.64328516 0.603806838 1 0.867113148 0.841381741 0.72893902 0.729291505 )
New Loadshape.CP1_DO 24 1.0 mult=(0.927762983 0.853718851 0.827610805 0.784192505 0.742628876 0.712003044 0.676241202 0.773159597 0.763838691 0.808968994 0.914352292 0.919345634 0.897184706 0.908217615 0.907456724 0.870125547 0.893903367 0.91939319 0.95691459 0.970087502 1 0.973654175 0.932090546 0.887340689 )
New Loadshape.CP1_DU 24 1.0 mult=(0.839164541 0.795562828 0.759228067 0.744886664 0.708166899 0.697916165 0.738485971 0.787044612 0.810770489 0.843832716 0.898214544 1 0.953607007 0.904326483 0.832619472 0.854997834 0.915539728 0.906540257 0.913229703 0.85600847 0.902257086 0.866162953 0.872467395 0.842244574 )
New Loadshape.CP1_SA 24 1.0 mult=(0.794105495 0.726392141 0.739429831 0.691043474 0.675067713 0.663590874 0.667676629 0.742092457 0.825552036 0.894734426 0.977184043 1 0.992930267 0.905430841 0.892209521 0.841940963 0.89014369 0.925767801 0.919845751 0.951384107 0.937382362 0.890097783 0.926915485 0.884680714 )
New Loadshape.CP2_DO 24 1.0 mult=(0.865983692 0.840685762 0.839222245 0.717332218 0.834204474 0.732594606 0.615931424 0.654610077 0.734894418 0.791553418 0.80263433 0.842149279 0.895044951 0.888563663 0.881037006 0.910516412 0.910516412 0.897135689 0.84110391 0.935814342 1 0.882291449 0.860965921 0.857202593 )
New Loadshape.CP2_DU 24 1.0 mult=(0.125436255 0.119254545 0.118319305 0.123885125 0.12402199 0.099865417 0.130979265 0.497023199 0.851730195 0.898971236 0.952530852 0.754830174 0.379616323 0.822053423 1 0.987887497 0.891055909 0.404023814 0.192887611 0.205775679 0.208832318 0.182873697 0.158374963 0.134149958 )
New Loadshape.CP2_SA 24 1.0 mult=(0.485331438 0.473962034 0.480154299 0.493655466 0.491117653 0.418942239 0.374885798 0.571617095 0.939397016 1 0.910262917 0.769972592 0.449903563 0.49538118 0.524413765 0.520150239 0.518627551 0.46178053 0.450208101 0.477616486 0.527256116 0.512536798 0.514973099 0.477413461 )
New Loadshape.CP3_DO 24 1.0 mult=(0.421913043 0.302086957 0.226956522 0.216347826 0.312521739 0.522086957 0.743130435 0.736869565 0.758 0.847652174 0.845913043 1 0.973217391 0.919391304 0.886347826 0.771478261 0.784434783 0.746782609 0.75826087 0.87226087 0.817304348 0.731304348 0.512434783 0.525826087 )
New Loadshape.CP3_DU 24 1.0 mult=(0.32847946 0.210147149 0.168301655 0.145079706 0.275367872 0.526747394 0.624463519 0.822808093 0.841661557 0.91370325 0.918148375 0.997394237 0.872394237 0.949800736 0.924739424 0.922900061 0.970646842 1 0.939071122 0.931560392 0.837216432 0.763412017 0.688917842 0.466354997 )
New Loadshape.CP3_SA 24 1.0 mult=(0.638774976 0.389843818 0.19675421 0.237588343 0.298665038 0.501090655 0.769566355 0.762062647 0.782392461 0.928191257 0.895995114 1 0.823750109 0.85010034 0.991798272 0.907512433 0.994503097 0.980019196 0.905767385 0.955588518 0.842683884 0.708664165 0.48250589 0.557630224 )
New Loadshape.CP4_DO 24 1.0 mult=(0.688755728 0.650334861 0.679473622 0.612266479 0.627893315 0.647397486 0.628363295 0.687345788 0.693690518 0.814240395 0.875690283 0.955821878 1 0.969333803 0.815885325 0.745975796 0.760075197 0.772177182 0.733756315 0.72682411 0.685348373 0.668311597 0.697332863 0.703912584 )
New Loadshape.CP4_DU 24 1.0 mult=(0.191528824 0.184072069 0.182065937 0.189333434 0.188084333 0.235095954 0.239448881 0.486543775 0.763314281 0.868125213 0.935765926 1 0.942200689 0.983307468 0.876679662 0.804837428 0.683863886 0.529429577 0.36939324 0.28960218 0.238502593 0.217911352 0.228623339 0.220258148 )
New Loadshape.CP4_SA 24 1.0 mult=(0.412342216 0.405173757 0.398005298 0.385148823 0.399485741 0.471793673 0.5561789 0.613448652 0.750194795 0.890213495 0.957924264 1 0.912420134 0.927146642 0.790634253 0.719884681 0.68988624 0.629110176 0.607059374 0.588670718 0.584229391 0.56685367 0.548776687 0.481689263 )
New Loadshape.CP5_DO 24 1.0 mult=(0.625935711 0.607441656 0.592910612 0.599075297 0.579480405 0.599955967 0.65896081 0.771466314 0.879348305 0.953985029 1 0.856450903 0.772787318 0.791501541 0.79898723 0.774548657 0.763099956 0.7553941 0.713121973 0.667767503 0.664244826 0.642448261 0.610083664 0.568031704 )
New Loadshape.CP5_DU 24 1.0 mult=(0.307799975 0.302583026 0.337701998 0.331848836 0.350171778 0.363277771 0.466217076 0.581880646 0.766764219 0.784578191 0.83636595 0.890062349 0.786614073 0.861432752 0.885863341 0.90545871 0.932052424 1 0.822623743 0.643084362 0.455274208 0.38770836 0.350553506 0.334266446 )
New Loadshape.CP5_SA 24 1.0 mult=(0.468647999 0.478268339 0.43995877 0.455763614 0.461604535 0.502147397 0.592509878 0.793678062 0.886273836 0.924411613 1 0.988318158 0.941934376 0.956193094 0.989864284 0.945370211 0.92990895 0.90104793 0.853461605 0.779591136 0.630991239 0.557979729 0.521559869 0.516921491 )
New Loadshape.CP6_DO 24 1.0 mult=(0.790744467 0.699195171 0.717303823 0.687122736 0.646881288 0.675050302 0.63028169 0.691649899 0.652414487 0.814889336 0.783702213 1 0.935613682 0.872736419 0.708752515 0.761569416 0.67806841 0.750503018 0.657444668 0.734406439 0.717806841 0.752012072 0.686619718 0.648390342 )
New Loadshape.CP6_DU 24 1.0 mult=(0.5566293 0.499420178 0.480092772 0.441051411 0.453034403 0.413219946 0.501739467 0.54232702 0.551990723 0.636644762 0.704677232 0.98763046 0.979126401 1 0.821414766 0.727483572 0.558562041 0.551217627 0.739080015 0.971395439 0.982991882 0.909934287 0.802473908 0.687669115 )
New Loadshape.CP6_SA 24 1.0 mult=(0.687022901 0.630444544 0.578805568 0.542433767 0.551414459 0.530758868 0.580152672 0.552312528 0.61338123 0.732824427 0.721598563 0.987876066 1 0.977997306 0.754827122 0.640772339 0.638976201 0.713515941 0.718006286 0.935339021 0.924113157 0.891333633 0.874270319 0.795689268 )
New Loadshape.CP7_DO 24 1.0 mult=(0.875994385 0.831539541 0.79129621 0.79784745 0.742161909 0.67103416 0.696771175 0.621431914 0.683668694 0.697707066 0.677117454 0.749181095 0.605989705 0.54094525 0.707533926 0.708469818 0.709405709 0.819372953 0.790360318 0.964436125 1 0.933551708 0.907346748 0.893776322 )
New Loadshape.CP7_DU 24 1.0 mult=(0.444538527 0.414902625 0.402483771 0.389500423 0.388653683 0.419700819 0.351114874 0.328252893 0.384984476 0.428168219 0.412926898 0.398814564 0.423934519 0.424781259 0.431272933 0.44764324 0.44510302 0.541349139 0.713237369 1 0.977138019 0.786621507 0.694044595 0.519616145 )
New Loadshape.CP7_SA 24 1.0 mult=(0.587240042 0.571378216 0.54635178 0.535072259 0.512160733 0.492421572 0.408530137 0.416989778 0.473739866 0.489954177 0.512160733 0.623898484 0.580895312 0.647162496 0.677476207 0.655974621 0.721536835 0.64328516 0.603806838 1 0.867113148 0.841381741 0.72893902 0.729291505 )
New Loadshape.IN1_DO 24 1.0 mult=(0.927762983 0.853718851 0.827610805 0.784192505 0.742628876 0.712003044 0.676241202 0.773159597 0.763838691 0.808968994 0.914352292 0.919345634 0.897184706 0.908217615 0.907456724 0.870125547 0.893903367 0.91939319 0.95691459 0.970087502 1 0.973654175 0.932090546 0.887340689 )
New Loadshape.IN1_DU 24 1.0 mult=(0.839164541 0.795562828 0.759228067 0.744886664 0.708166899 0.697916165 0.738485971 0.787044612 0.810770489 0.843832716 0.898214544 1 0.953607007 0.904326483 0.832619472 0.854997834 0.915539728 0.906540257 0.913229703 0.85600847 0.902257086 0.866162953 0.872467395 0.842244574 )
New Loadshape.IN1_SA 24 1.0 mult=(0.794105495 0.726392141 0.739429831 0.691043474 0.675067713 0.663590874 0.667676629 0.742092457 0.825552036 0.894734426 0.977184043 1 0.992930267 0.905430841 0.892209521 0.841940963 0.89014369 0.925767801 0.919845751 0.951384107 0.937382362 0.890097783 0.926915485 0.884680714 )
New Loadshape.IN2_DO 24 1.0 mult=(0.865983692 0.840685762 0.839222245 0.717332218 0.834204474 0.732594606 0.615931424 0.654610077 0.734894418 0.791553418 0.80263433 0.842149279 0.895044951 0.888563663 0.881037006 0.910516412 0.910516412 0.897135689 0.84110391 0.935814342 1 0.882291449 0.860965921 0.857202593 )
New Loadshape.IN2_DU 24 1.0 mult=(0.125436255 0.119254545 0.118319305 0.123885125 0.12402199 0.099865417 0.130979265 0.497023199 0.851730195 0.898971236 0.952530852 0.754830174 0.379616323 0.822053423 1 0.987887497 0.891055909 0.404023814 0.192887611 0.205775679 0.208832318 0.182873697 0.158374963 0.134149958 )
New Loadshape.IN2_SA 24 1.0 mult=(0.485331438 0.473962034 0.480154299 0.493655466 0.491117653 0.418942239 0.374885798 0.571617095 0.939397016 1 0.910262917 0.769972592 0.449903563 0.49538118 0.524413765 0.520150239 0.518627551 0.46178053 0.450208101 0.477616486 0.527256116 0.512536798 0.514973099 0.477413461 )
New Loadshape.IN3_DO 24 1.0 mult=(0.421913043 0.302086957 0.226956522 0.216347826 0.312521739 0.522086957 0.743130435 0.736869565 0.758 0.847652174 0.845913043 1 0.973217391 0.919391304 0.886347826 0.771478261 0.784434783 0.746782609 0.75826087 0.87226087 0.817304348 0.731304348 0.512434783 0.525826087 )
New Loadshape.IN3_DU 24 1.0 mult=(0.32847946 0.210147149 0.168301655 0.145079706 0.275367872 0.526747394 0.624463519 0.822808093 0.841661557 0.91370325 0.918148375 0.997394237 0.872394237 0.949800736 0.924739424 0.922900061 0.970646842 1 0.939071122 0.931560392 0.837216432 0.763412017 0.688917842 0.466354997 )
New Loadshape.IN3_SA 24 1.0 mult=(0.638774976 0.389843818 0.19675421 0.237588343 0.298665038 0.501090655 0.769566355 0.762062647 0.782392461 0.928191257 0.895995114 1 0.823750109 0.85010034 0.991798272 0.907512433 0.994503097 0.980019196 0.905767385 0.955588518 0.842683884 0.708664165 0.48250589 0.557630224 )
New Loadshape.IN4_DO 24 1.0 mult=(0.688755728 0.650334861 0.679473622 0.612266479 0.627893315 0.647397486 0.628363295 0.687345788 0.693690518 0.814240395 0.875690283 0.955821878 1 0.969333803 0.815885325 0.745975796 0.760075197 0.772177182 0.733756315 0.72682411 0.685348373 0.668311597 0.697332863 0.703912584 )
New Loadshape.IN4_DU 24 1.0 mult=(0.191528824 0.184072069 0.182065937 0.189333434 0.188084333 0.235095954 0.239448881 0.486543775 0.763314281 0.868125213 0.935765926 1 0.942200689 0.983307468 0.876679662 0.804837428 0.683863886 0.529429577 0.36939324 0.28960218 0.238502593 0.217911352 0.228623339 0.220258148 )
New Loadshape.IN4_SA 24 1.0 mult=(0.412342216 0.405173757 0.398005298 0.385148823 0.399485741 0.471793673 0.5561789 0.613448652 0.750194795 0.890213495 0.957924264 1 0.912420134 0.927146642 0.790634253 0.719884681 0.68988624 0.629110176 0.607059374 0.588670718 0.584229391 0.56685367 0.548776687 0.481689263 )
New Loadshape.IN5_DO 24 1.0 mult=(0.625935711 0.607441656 0.592910612 0.599075297 0.579480405 0.599955967 0.65896081 0.771466314 0.879348305 0.953985029 1 0.856450903 0.772787318 0.791501541 0.79898723 0.774548657 0.763099956 0.7553941 0.713121973 0.667767503 0.664244826 0.642448261 0.610083664 0.568031704 )
New Loadshape.IN5_DU 24 1.0 mult=(0.307799975 0.302583026 0.337701998 0.331848836 0.350171778 0.363277771 0.466217076 0.581880646 0.766764219 0.784578191 0.83636595 0.890062349 0.786614073 0.861432752 0.885863341 0.90545871 0.932052424 1 0.822623743 0.643084362 0.455274208 0.38770836 0.350553506 0.334266446 )
New Loadshape.IN5_SA 24 1.0 mult=(0.468647999 0.478268339 0.43995877 0.455763614 0.461604535 0.502147397 0.592509878 0.793678062 0.886273836 0.924411613 1 0.988318158 0.941934376 0.956193094 0.989864284 0.945370211 0.92990895 0.90104793 0.853461605 0.779591136 0.630991239 0.557979729 0.521559869 0.516921491 )
New Loadshape.IN6_DO 24 1.0 mult=(0.790744467 0.699195171 0.717303823 0.687122736 0.646881288 0.675050302 0.63028169 0.691649899 0.652414487 0.814889336 0.783702213 1 0.935613682 0.872736419 0.708752515 0.761569416 0.67806841 0.750503018 0.657444668 0.734406439 0.717806841 0.752012072 0.686619718 0.648390342 )
New Loadshape.IN6_DU 24 1.0 mult=(0.5566293 0.499420178 0.480092772 0.441051411 0.453034403 0.413219946 0.501739467 0.54232702 0.551990723 0.636644762 0.704677232 0.98763046 0.979126401 1 0.821414766 0.727483572 0.558562041 0.551217627 0.739080015 0.971395439 0.982991882 0.909934287 0.802473908 0.687669115 )
New Loadshape.IN6_SA 24 1.0 mult=(0.687022901 0.630444544 0.578805568 0.542433767 0.551414459 0.530758868 0.580152672 0.552312528 0.61338123 0.732824427 0.721598563 0.987876066 1 0.977997306 0.754827122 0.640772339 0.638976201 0.713515941 0.718006286 0.935339021 0.924113157 0.891333633 0.874270319 0.795689268 )
New Loadshape.IN7_DO 24 1.0 mult=(0.875994385 0.831539541 0.79129621 0.79784745 0.742161909 0.67103416 0.696771175 0.621431914 0.683668694 0.697707066 0.677117454 0.749181095 0.605989705 0.54094525 0.707533926 0.708469818 0.709405709 0.819372953 0.790360318 0.964436125 1 0.933551708 0.907346748 0.893776322 )
New Loadshape.IN7_DU 24 1.0 mult=(0.444538527 0.414902625 0.402483771 0.389500423 0.388653683 0.419700819 0.351114874 0.328252893 0.384984476 0.428168219 0.412926898 0.398814564 0.423934519 0.424781259 0.431272933 0.44764324 0.44510302 0.541349139 0.713237369 1 0.977138019 0.786621507 0.694044595 0.519616145 )
New Loadshape.IN7_SA 24 1.0 mult=(0.587240042 0.571378216 0.54635178 0.535072259 0.512160733 0.492421572 0.408530137 0.416989778 0.473739866 0.489954177 0.512160733 0.623898484 0.580895312 0.647162496 0.677476207 0.655974621 0.721536835 0.64328516 0.603806838 1 0.867113148 0.841381741 0.72893902 0.729291505 )
New Loadshape.IP1_DO 24 1.0 mult=(1 1 1 1 1 0.791676988 0.083292049 0 0 0 0 0 0 0 0 0 0 0.124969036 0.916646024 1 1 1 1 1 )
New Loadshape.IP1_DU 24 1.0 mult=(1 1 1 1 1 0.791676988 0.083292049 0 0 0 0 0 0 0 0 0 0 0.124969036 0.916646024 1 1 1 1 1 )
New Loadshape.IP1_SA 24 1.0 mult=(1 1 1 1 1 0.791676988 0.083292049 0 0 0 0 0 0 0 0 0 0 0.124969036 0.916646024 1 1 1 1 1 )
New Loadshape.PP1_DO 24 1.0 mult=(0.927762983 0.853718851 0.827610805 0.784192505 0.742628876 0.712003044 0.676241202 0.773159597 0.763838691 0.808968994 0.914352292 0.919345634 0.897184706 0.908217615 0.907456724 0.870125547 0.893903367 0.91939319 0.95691459 0.970087502 1 0.973654175 0.932090546 0.887340689 )
New Loadshape.PP1_DU 24 1.0 mult=(0.839164541 0.795562828 0.759228067 0.744886664 0.708166899 0.697916165 0.738485971 0.787044612 0.810770489 0.843832716 0.898214544 1 0.953607007 0.904326483 0.832619472 0.854997834 0.915539728 0.906540257 0.913229703 0.85600847 0.902257086 0.866162953 0.872467395 0.842244574 )
New Loadshape.PP1_SA 24 1.0 mult=(0.794105495 0.726392141 0.739429831 0.691043474 0.675067713 0.663590874 0.667676629 0.742092457 0.825552036 0.894734426 0.977184043 1 0.992930267 0.905430841 0.892209521 0.841940963 0.89014369 0.925767801 0.919845751 0.951384107 0.937382362 0.890097783 0.926915485 0.884680714 )
New Loadshape.PP2_DO 24 1.0 mult=(0.865983692 0.840685762 0.839222245 0.717332218 0.834204474 0.732594606 0.615931424 0.654610077 0.734894418 0.791553418 0.80263433 0.842149279 0.895044951 0.888563663 0.881037006 0.910516412 0.910516412 0.897135689 0.84110391 0.935814342 1 0.882291449 0.860965921 0.857202593 )
New Loadshape.PP2_DU 24 1.0 mult=(0.125436255 0.119254545 0.118319305 0.123885125 0.12402199 0.099865417 0.130979265 0.497023199 0.851730195 0.898971236 0.952530852 0.754830174 0.379616323 0.822053423 1 0.987887497 0.891055909 0.404023814 0.192887611 0.205775679 0.208832318 0.182873697 0.158374963 0.134149958 )
New Loadshape.PP2_SA 24 1.0 mult=(0.485331438 0.473962034 0.480154299 0.493655466 0.491117653 0.418942239 0.374885798 0.571617095 0.939397016 1 0.910262917 0.769972592 0.449903563 0.49538118 0.524413765 0.520150239 0.518627551 0.46178053 0.450208101 0.477616486 0.527256116 0.512536798 0.514973099 0.477413461 )
New Loadshape.PP3_DO 24 1.0 mult=(0.421913043 0.302086957 0.226956522 0.216347826 0.312521739 0.522086957 0.743130435 0.736869565 0.758 0.847652174 0.845913043 1 0.973217391 0.919391304 0.886347826 0.771478261 0.784434783 0.746782609 0.75826087 0.87226087 0.817304348 0.731304348 0.512434783 0.525826087 )
New Loadshape.PP3_DU 24 1.0 mult=(0.32847946 0.210147149 0.168301655 0.145079706 0.275367872 0.526747394 0.624463519 0.822808093 0.841661557 0.91370325 0.918148375 0.997394237 0.872394237 0.949800736 0.924739424 0.922900061 0.970646842 1 0.939071122 0.931560392 0.837216432 0.763412017 0.688917842 0.466354997 )
New Loadshape.PP3_SA 24 1.0 mult=(0.638774976 0.389843818 0.19675421 0.237588343 0.298665038 0.501090655 0.769566355 0.762062647 0.782392461 0.928191257 0.895995114 1 0.823750109 0.85010034 0.991798272 0.907512433 0.994503097 0.980019196 0.905767385 0.955588518 0.842683884 0.708664165 0.48250589 0.557630224 )
New Loadshape.PP4_DO 24 1.0 mult=(0.688755728 0.650334861 0.679473622 0.612266479 0.627893315 0.647397486 0.628363295 0.687345788 0.693690518 0.814240395 0.875690283 0.955821878 1 0.969333803 0.815885325 0.745975796 0.760075197 0.772177182 0.733756315 0.72682411 0.685348373 0.668311597 0.697332863 0.703912584 )
New Loadshape.PP4_DU 24 1.0 mult=(0.191528824 0.184072069 0.182065937 0.189333434 0.188084333 0.235095954 0.239448881 0.486543775 0.763314281 0.868125213 0.935765926 1 0.942200689 0.983307468 0.876679662 0.804837428 0.683863886 0.529429577 0.36939324 0.28960218 0.238502593 0.217911352 0.228623339 0.220258148 )
New Loadshape.PP4_SA 24 1.0 mult=(0.412342216 0.405173757 0.398005298 0.385148823 0.399485741 0.471793673 0.5561789 0.613448652 0.750194795 0.890213495 0.957924264 1 0.912420134 0.927146642 0.790634253 0.719884681 0.68988624 0.629110176 0.607059374 0.588670718 0.584229391 0.56685367 0.548776687 0.481689263 )
New Loadshape.PP5_DO 24 1.0 mult=(0.625935711 0.607441656 0.592910612 0.599075297 0.579480405 0.599955967 0.65896081 0.771466314 0.879348305 0.953985029 1 0.856450903 0.772787318 0.791501541 0.79898723 0.774548657 0.763099956 0.7553941 0.713121973 0.667767503 0.664244826 0.642448261 0.610083664 0.568031704 )
New Loadshape.PP5_DU 24 1.0 mult=(0.307799975 0.302583026 0.337701998 0.331848836 0.350171778 0.363277771 0.466217076 0.581880646 0.766764219 0.784578191 0.83636595 0.890062349 0.786614073 0.861432752 0.885863341 0.90545871 0.932052424 1 0.822623743 0.643084362 0.455274208 0.38770836 0.350553506 0.334266446 )
New Loadshape.PP5_SA 24 1.0 mult=(0.468647999 0.478268339 0.43995877 0.455763614 0.461604535 0.502147397 0.592509878 0.793678062 0.886273836 0.924411613 1 0.988318158 0.941934376 0.956193094 0.989864284 0.945370211 0.92990895 0.90104793 0.853461605 0.779591136 0.630991239 0.557979729 0.521559869 0.516921491 )
New Loadshape.PP6_DO 24 1.0 mult=(0.790744467 0.699195171 0.717303823 0.687122736 0.646881288 0.675050302 0.63028169 0.691649899 0.652414487 0.814889336 0.783702213 1 0.935613682 0.872736419 0.708752515 0.761569416 0.67806841 0.750503018 0.657444668 0.734406439 0.717806841 0.752012072 0.686619718 0.648390342 )
New Loadshape.PP6_DU 24 1.0 mult=(0.5566293 0.499420178 0.480092772 0.441051411 0.453034403 0.413219946 0.501739467 0.54232702 0.551990723 0.636644762 0.704677232 0.98763046 0.979126401 1 0.821414766 0.727483572 0.558562041 0.551217627 0.739080015 0.971395439 0.982991882 0.909934287 0.802473908 0.687669115 )
New Loadshape.PP6_SA 24 1.0 mult=(0.687022901 0.630444544 0.578805568 0.542433767 0.551414459 0.530758868 0.580152672 0.552312528 0.61338123 0.732824427 0.721598563 0.987876066 1 0.977997306 0.754827122 0.640772339 0.638976201 0.713515941 0.718006286 0.935339021 0.924113157 0.891333633 0.874270319 0.795689268 )
New Loadshape.PP7_DO 24 1.0 mult=(0.875994385 0.831539541 0.79129621 0.79784745 0.742161909 0.67103416 0.696771175 0.621431914 0.683668694 0.697707066 0.677117454 0.749181095 0.605989705 0.54094525 0.707533926 0.708469818 0.709405709 0.819372953 0.790360318 0.964436125 1 0.933551708 0.907346748 0.893776322 )
New Loadshape.PP7_DU 24 1.0 mult=(0.444538527 0.414902625 0.402483771 0.389500423 0.388653683 0.419700819 0.351114874 0.328252893 0.384984476 0.428168219 0.412926898 0.398814564 0.423934519 0.424781259 0.431272933 0.44764324 0.44510302 0.541349139 0.713237369 1 0.977138019 0.786621507 0.694044595 0.519616145 )
New Loadshape.PP7_SA 24 1.0 mult=(0.587240042 0.571378216 0.54635178 0.535072259 0.512160733 0.492421572 0.408530137 0.416989778 0.473739866 0.489954177 0.512160733 0.623898484 0.580895312 0.647162496 0.677476207 0.655974621 0.721536835 0.64328516 0.603806838 1 0.867113148 0.841381741 0.72893902 0.729291505 )
New Loadshape.RE1_DO 24 1.0 mult=(0.837391304 0.756463768 0.704 0.640231884 0.587594203 0.545333333 0.576869565 0.538028986 0.538318841 0.515304348 0.541449275 0.616869565 0.678144928 0.805913043 0.920869565 0.800231884 0.779652174 0.765507246 0.794724638 0.828405797 0.990318841 0.996521739 0.99826087 1 )
New Loadshape.RE1_DU 24 1.0 mult=(0.50397388 0.453537827 0.429995274 0.372556601 0.340421876 0.326373674 0.298062465 0.299093526 0.367659063 0.377540061 0.444473085 0.852343515 0.960561928 0.986811015 1 0.775271727 0.794647077 0.805645057 0.645959531 0.706878034 0.822571637 0.728444387 0.733513769 0.681574086 )
New Loadshape.RE1_SA 24 1.0 mult=(0.729459344 0.627926777 0.558003406 0.553214134 0.487867178 0.464293316 0.441730524 0.481534696 0.483610047 0.469987229 0.561781609 0.675446999 0.866538953 0.983822903 1 0.975202214 0.92933163 0.896817795 0.701575138 0.76261175 0.849989357 0.875798212 0.80959983 0.820987654 )
New Loadshape.RE2_DO 24 1.0 mult=(0.665258176 0.581593848 0.519141384 0.495816784 0.529789572 0.518549818 0.548297135 0.664497591 0.736077073 0.865376489 1 0.83453055 0.692808248 0.652412744 0.634412237 0.57981915 0.627313445 0.575593679 0.644299839 0.666779346 0.754246598 0.686470041 0.681906533 0.618017409 )
New Loadshape.RE2_DU 24 1.0 mult=(0.357624158 0.354255054 0.324806588 0.31039431 0.303156975 0.321936611 0.335413027 0.520027452 0.783004742 0.940291989 0.976416272 0.89524582 0.921637135 1 0.942600449 0.914711754 0.840653856 0.922136262 0.754928874 0.683678563 0.469865236 0.418080858 0.416271525 0.448402795 )
New Loadshape.RE2_SA 24 1.0 mult=(0.639206156 0.619036047 0.60526529 0.55471851 0.512515188 0.485540705 0.596435804 0.624787363 0.7309032 0.839368165 1 0.971162414 0.779262859 0.791737546 0.917375456 0.878088295 0.829728635 0.998784933 0.898258404 0.894937222 0.863831511 0.730012151 0.663912515 0.624139328 )
New Loadshape.RE3_DO 24 1.0 mult=(1 0.879647937 0.951144843 0.922380254 0.878053447 0.743861216 0.837043179 0.924102302 0.831940813 0.849671535 0.767076982 0.759614771 0.716818675 0.709101346 0.739970661 0.727342305 0.750876969 0.619554819 0.726959628 0.650487914 0.806365202 0.927929077 0.919637732 0.893743223 )
New Loadshape.RE3_DU 24 1.0 mult=(0.895104895 0.852657343 0.804335664 0.736153846 0.761118881 0.817342657 1 0.85979021 0.791188811 0.743636364 0.72006993 0.656223776 0.582657343 0.564475524 0.498251748 0.527622378 0.565594406 0.606923077 0.782727273 0.794825175 0.83020979 0.942587413 0.927762238 0.905944056 )
New Loadshape.RE3_SA 24 1.0 mult=(0.837072679 0.795165893 0.841268953 0.754378112 0.755273317 0.787500699 0.754545963 0.705757288 0.538242041 0.581771387 0.6282661 0.605438371 0.558440105 0.608459688 0.629664858 0.574162144 0.565545795 0.614446372 0.59284955 0.738432272 0.831421698 0.905835618 1 0.922732613 )
New Loadshape.RE4_DO 24 1.0 mult=(0.830547403 0.786653056 0.757815491 0.74173791 0.73331632 0.692229169 0.751180299 0.813321424 0.708817149 0.881076943 0.964782442 0.924205691 0.93339288 0.878907745 0.872655353 0.953681256 0.855556973 0.959295649 0.853004976 0.946408064 1 0.923822891 0.848921781 0.800689039 )
New Loadshape.RE4_DU 24 1.0 mult=(0.679490767 0.672495803 0.710688304 0.614017907 0.601706771 0.521264689 0.48265249 0.67893117 0.64815333 0.679770565 0.714745383 0.691941802 0.727196419 0.794487969 0.802042529 0.805959709 0.826524902 0.897034135 0.955092334 0.895075546 1 0.886681589 0.781337437 0.914521544 )