New Line.SMT_1 phases=2 bus1=183771.2.3 bus2= 183751.2.3 linecode=18_2 length=0.18687 units=km
New Line.SMT_1000 phases=2 bus1=87881.3.1 bus2= 87891.3.1 linecode=18_2 length=0.10511 units=km
New Line.SMT_1005 phases=1 bus1=138561.2 bus2= 138571.2 linecode=1_1 length=0.13885 units=km
New Line.SMT_1006 phases=3 bus1=82191.1.2.3 bus2= 82181.1.2.3 linecode=10_3 length=0.08836 units=km
New Line.SMT_1007 phases=1 bus1=193151.2 bus2= 193181.2 linecode=1_1 length=0.11838 units=km
New Line.SMT_1008 phases=1 bus1=441751.2 bus2= 441761.2 linecode=1_1 length=0.10325 units=km
New Line.SMT_101 phases=2 bus1=143681.3.1 bus2= 143691.3.1 linecode=18_2 length=0.12118 units=km
New Line.SMT_1011 phases=1 bus1=159141.2 bus2= 102661.2 linecode=1_1 length=0.14625 units=km
New Line.SMT_1012 phases=1 bus1=102661.2 bus2= 629581.2 linecode=1_1 length=0.10177 units=km
New Line.SMT_1015 phases=3 bus1=340481.1.2.3 bus2= 340471.1.2.3 linecode=13_3 length=0.08841 units=km
New Line.SMT_10151 phases=1 bus1=119161.2 bus2= 119171.2 linecode=1_1 length=0.09976 units=km
New Line.SMT_1017 phases=2 bus1=82051.3.1 bus2= 82041.3.1 linecode=18_2 length=0.0622 units=km
New Line.SMT_1019 phases=2 bus1=221921.2.3 bus2= 791681.2.3 linecode=18_2 length=0.12911 units=km
New Line.SMT_102 phases=3 bus1=188381.1.2.3 bus2= 188371.1.2.3 linecode=11_3 length=0.10623 units=km
New Line.SMT_1020 phases=1 bus1=196061.1 bus2= 196071.1 linecode=1_1 length=0.14101 units=km
New Line.SMT_1021 phases=2 bus1=223721.2.3 bus2= 205411.2.3 linecode=18_2 length=0.10971 units=km
New Line.SMT_1022 phases=3 bus1=199461.1.2.3 bus2= 145941.1.2.3 linecode=10_3 length=0.40817 units=km
New Line.SMT_1023 phases=1 bus1=163941.2 bus2= 103491.2 linecode=1_1 length=0.13014 units=km
New Line.SMT_1024 phases=2 bus1=188641.1.2 bus2= 188651.1.2 linecode=18_2 length=0.09193 units=km
New Line.SMT_1025 phases=2 bus1=173021.1.2 bus2= 173031.1.2 linecode=18_2 length=0.25962 units=km
New Line.SMT_1026 phases=3 bus1=103741.1.2.3 bus2= 103801.1.2.3 linecode=10_3 length=0.07111 units=km
New Line.SMT_103 phases=2 bus1=174241.2.3 bus2= 174251.2.3 linecode=18_2 length=0.08301 units=km
New Line.SMT_10301 phases=1 bus1=541681.1 bus2= 126101.1 linecode=1_1 length=0.1644 units=km
New Line.SMT_1032 phases=3 bus1=101871.1.2.3 bus2= 101881.1.2.3 linecode=10_3 length=0.1318 units=km
New Line.SMT_1033 phases=2 bus1=81871.2.3 bus2= 81901.2.3 linecode=18_2 length=0.08476 units=km
New Line.SMT_1034 phases=3 bus1=147591.1.2.3 bus2= 116991.1.2.3 linecode=10_3 length=0.09306 units=km
New Line.SMT_1039 phases=1 bus1=192111.3 bus2= 192121.3 linecode=1_1 length=0.0993 units=km
New Line.SMT_1040 phases=2 bus1=496191.1.2 bus2= 188661.1.2 linecode=18_2 length=0.12304 units=km
New Line.SMT_1041 phases=2 bus1=173031.1.2 bus2= 202561.1.2 linecode=18_2 length=0.07072 units=km
New Line.SMT_1042 phases=3 bus1=139311.1.2.3 bus2= 331511.1.2.3 linecode=10_3 length=0.12532 units=km
New Line.SMT_1043 phases=1 bus1=138971.2 bus2= 138981.2 linecode=1_1 length=0.09261 units=km
New Line.SMT_1044 phases=3 bus1=89711.1.2.3 bus2= 89721.1.2.3 linecode=10_3 length=0.11092 units=km
New Line.SMT_1045 phases=3 bus1=261181.1.2.3 bus2= 261171.1.2.3 linecode=10_3 length=0.11743 units=km
New Line.SMT_1048 phases=1 bus1=208361.1 bus2= 208341.1 linecode=1_1 length=0.06748 units=km
New Line.SMT_1049 phases=1 bus1=208341.1 bus2= 423921.1 linecode=1_1 length=0.19563 units=km
New Line.SMT_105 phases=3 bus1=188231.1.2.3 bus2= 188221.1.2.3 linecode=11_3 length=0.10057 units=km
New Line.SMT_1050 phases=1 bus1=423921.1 bus2= 208321.1 linecode=1_1 length=0.08875 units=km
New Line.SMT_1051 phases=1 bus1=208321.1 bus2= 208311.1 linecode=1_1 length=0.10456 units=km
New Line.SMT_1054 phases=2 bus1=81861.2.3 bus2= 81871.2.3 linecode=18_2 length=0.16676 units=km
New Line.SMT_1055 phases=2 bus1=102551.2.3 bus2= 102561.2.3 linecode=18_2 length=0.0632 units=km
New Line.SMT_1056 phases=1 bus1=80011.3 bus2= 77081.3 linecode=1_1 length=0.11094 units=km
New Line.SMT_1058 phases=2 bus1=206091.2.3 bus2= 132801.2.3 linecode=18_2 length=0.18805 units=km
New Line.SMT_1059 phases=3 bus1=83721.1.2.3 bus2= 83731.1.2.3 linecode=10_3 length=0.04219 units=km
New Line.SMT_10590 phases=1 bus1=574581.1 bus2= 98881.1 linecode=1_1 length=0.18204 units=km
New Line.SMT_10596 phases=2 bus1=617091.2.3 bus2= 617101.2.3 linecode=18_2 length=0.14165 units=km
New Line.SMT_1062 phases=3 bus1=103801.1.2.3 bus2= 135261.1.2.3 linecode=10_3 length=0.05263 units=km
New Line.SMT_10629 phases=1 bus1=491721.2 bus2= 491731.2 linecode=1_1 length=0.06353 units=km
New Line.SMT_1063 phases=2 bus1=220241.1.2 bus2= 202311.1.2 linecode=18_2 length=0.08066 units=km
New Line.SMT_10632 phases=1 bus1=118351.3 bus2= 118361.3 linecode=1_1 length=0.09902 units=km
New Line.SMT_1064 phases=3 bus1=77281.1.2.3 bus2= 77271.1.2.3 linecode=10_3 length=0.05714 units=km
New Line.SMT_1065 phases=1 bus1=76381.1 bus2= 76391.1 linecode=1_1 length=0.07071 units=km
New Line.SMT_1067 phases=2 bus1=202311.1.2 bus2= 202321.1.2 linecode=18_2 length=0.09405 units=km
New Line.SMT_1068 phases=2 bus1=121861.3.1 bus2= 106481.3.1 linecode=18_2 length=0.0024 units=km
New Line.SMT_1069 phases=1 bus1=141691.2 bus2= 141731.2 linecode=1_1 length=0.05882 units=km
New Line.SMT_107 phases=3 bus1=137691.1.2.3 bus2= 137701.1.2.3 linecode=10_3 length=0.08528 units=km
New Line.SMT_1070 phases=3 bus1=114271.1.2.3 bus2= 114261.1.2.3 linecode=10_3 length=0.0933 units=km
New Line.SMT_1071 phases=3 bus1=13471.1.2.3 bus2= 13481.1.2.3 linecode=11_3 length=0.08746 units=km
New Line.SMT_1072 phases=3 bus1=7CF536.1.2.3 bus2= 261211.1.2.3 linecode=10_3 length=0.16643 units=km
New Line.SMT_1073 phases=3 bus1=170941.1.2.3 bus2= 170931.1.2.3 linecode=10_3 length=0.08463 units=km
New Line.SMT_10755 phases=3 bus1=127061.1.2.3 bus2= 575831.1.2.3 linecode=11_3 length=0.11606 units=km
New Line.SMT_10758 phases=3 bus1=188291.1.2.3 bus2= 575711.1.2.3 linecode=11_3 length=0.10956 units=km
New Line.SMT_1078 phases=1 bus1=115681.3 bus2= 115691.3 linecode=27_1 length=0.25145 units=km
New Line.SMT_10784 phases=3 bus1=91611.1.2.3 bus2= 749151.1.2.3 linecode=10_3 length=0.08666 units=km
New Line.SMT_10785 phases=3 bus1=491691.1.2.3 bus2= 91631.1.2.3 linecode=10_3 length=0.08324 units=km
New Line.SMT_10786 phases=3 bus1=668781.1.2.3 bus2= 601621.1.2.3 linecode=10_3 length=0.06185 units=km
New Line.SMT_1079 phases=3 bus1=122621.1.2.3 bus2= 122611.1.2.3 linecode=10_3 length=0.08429 units=km
New Line.SMT_1080 phases=2 bus1=205421.2.3 bus2= 286381.2.3 linecode=18_2 length=0.09055 units=km
New Line.SMT_1081 phases=1 bus1=115701.3 bus2= 115711.3 linecode=27_1 length=0.28505 units=km
New Line.SMT_1084 phases=3 bus1=175401.1.2.3 bus2= 175391.1.2.3 linecode=10_3 length=0.08264 units=km
New Line.SMT_1085 phases=2 bus1=338151.2.3 bus2= 348441.2.3 linecode=18_2 length=0.08828 units=km
New Line.SMT_1086 phases=2 bus1=208271.2.3 bus2= 208281.2.3 linecode=18_2 length=0.11316 units=km
New Line.SMT_1087 phases=3 bus1=133231.1.2.3 bus2= 114281.1.2.3 linecode=10_3 length=0.08797 units=km
New Line.SMT_10878 phases=3 bus1=91601.1.2.3 bus2= 91611.1.2.3 linecode=10_3 length=0.06307 units=km
New Line.SMT_1088 phases=3 bus1=261171.1.2.3 bus2= 261191.1.2.3 linecode=10_3 length=0.04357 units=km
New Line.SMT_1089 phases=1 bus1=192101.3 bus2= 192111.3 linecode=1_1 length=0.12795 units=km
New Line.SMT_1090 phases=3 bus1=188301.1.2.3 bus2= 188291.1.2.3 linecode=11_3 length=0.08709 units=km
New Line.SMT_1091 phases=3 bus1=103711.1.2.3 bus2= 103721.1.2.3 linecode=10_3 length=0.04965 units=km
New Line.SMT_10935 phases=1 bus1=205921.2 bus2= 640001.2 linecode=1_1 length=0.06978 units=km
New Line.SMT_10936 phases=1 bus1=640001.2 bus2= 640011.2 linecode=1_1 length=0.10316 units=km
New Line.SMT_1094 phases=2 bus1=87891.3.1 bus2= 173041.3.1 linecode=18_2 length=0.08412 units=km
New Line.SMT_1095 phases=3 bus1=82181.1.2.3 bus2= 82171.1.2.3 linecode=10_3 length=0.08158 units=km
New Line.SMT_1096 phases=1 bus1=95841.2 bus2= 121451.2 linecode=1_1 length=0.00319 units=km
New Line.SMT_1098 phases=1 bus1=79981.3 bus2= 79991.3 linecode=1_1 length=0.43513 units=km
New Line.SMT_10984 phases=2 bus1=13591.2.3 bus2= 350691.2.3 linecode=18_2 length=0.21906 units=km
New Line.SMT_10985 phases=2 bus1=350691.2.3 bus2= 350701.2.3 linecode=18_2 length=0.17824 units=km
New Line.SMT_110 phases=2 bus1=121881.3.1 bus2= 122661.3.1 linecode=18_2 length=0.10429 units=km
New Line.SMT_1100 phases=2 bus1=98821.3.1 bus2= 98831.3.1 linecode=18_2 length=0.10756 units=km
New Line.SMT_1102 phases=2 bus1=188511.1.2 bus2= 172931.1.2 linecode=18_2 length=0.11575 units=km
New Line.SMT_1103 phases=1 bus1=441761.2 bus2= 441771.2 linecode=1_1 length=0.12629 units=km
New Line.SMT_1107 phases=1 bus1=141641.2 bus2= 141651.2 linecode=1_1 length=0.08859 units=km
New Line.SMT_1108 phases=3 bus1=575831.1.2.3 bus2= 127101.1.2.3 linecode=11_3 length=0.04272 units=km
New Line.SMT_1109 phases=2 bus1=122741.3.1 bus2= 122751.3.1 linecode=18_2 length=0.15951 units=km
New Line.SMT_111 phases=3 bus1=188341.1.2.3 bus2= 188331.1.2.3 linecode=11_3 length=0.09847 units=km
New Line.SMT_1110 phases=1 bus1=238531.2 bus2= 371361.2 linecode=1_1 length=0.10841 units=km
New Line.SMT_1111 phases=1 bus1=106451.2 bus2= 106961.2 linecode=1_1 length=0.46001 units=km
New Line.SMT_11111 phases=3 bus1=340451.1.2.3 bus2= 620431.1.2.3 linecode=13_3 length=0.11807 units=km
New Line.SMT_11125 phases=1 bus1=137121.2 bus2= 137131.2 linecode=1_1 length=0.04478 units=km
New Line.SMT_1115 phases=2 bus1=191151.2.3 bus2= 191161.2.3 linecode=18_2 length=0.18901 units=km
New Line.SMT_1116 phases=3 bus1=175391.1.2.3 bus2= 146461.1.2.3 linecode=10_3 length=0.10139 units=km
New Line.SMT_11169 phases=1 bus1=640011.2 bus2= 640021.2 linecode=1_1 length=0.05879 units=km
New Line.SMT_1117 phases=2 bus1=98801.3.1 bus2= 98811.3.1 linecode=18_2 length=0.06903 units=km
New Line.SMT_112 phases=3 bus1=648521.1.2.3 bus2= 144431.1.2.3 linecode=11_3 length=0.07859 units=km
New Line.SMT_1121 phases=2 bus1=221711.2.3 bus2= 221701.2.3 linecode=18_2 length=0.06966 units=km
New Line.SMT_1122 phases=1 bus1=668801.2 bus2= 141671.2 linecode=1_1 length=0.12709 units=km
New Line.SMT_1123 phases=1 bus1=97421.2 bus2= 97411.2 linecode=1_1 length=0.07338 units=km
New Line.SMT_11237 phases=1 bus1=117001.2 bus2= 764481.2 linecode=1_1 length=0.00227 units=km
New Line.SMT_11244 phases=1 bus1=112111.2 bus2= 403701.2 linecode=1_1 length=0.00391 units=km
New Line.SMT_1126 phases=1 bus1=121091.2 bus2= 121121.2 linecode=1_1 length=0.15384 units=km
New Line.SMT_1128 phases=3 bus1=95461.1.2.3 bus2= 95411.1.2.3 linecode=10_3 length=0.05917 units=km
New Line.SMT_1129 phases=3 bus1=118371.1.2.3 bus2= 122641.1.2.3 linecode=10_3 length=0.10838 units=km
New Line.SMT_113 phases=3 bus1=188371.1.2.3 bus2= 188341.1.2.3 linecode=11_3 length=0.09848 units=km
New Line.SMT_1131 phases=2 bus1=610091.2.3 bus2= 99601.2.3 linecode=18_2 length=0.09101 units=km
New Line.SMT_11314 phases=1 bus1=137131.2 bus2= 137141.2 linecode=1_1 length=0.078 units=km
New Line.SMT_1132 phases=1 bus1=372501.3 bus2= 192091.3 linecode=1_1 length=0.22808 units=km
New Line.SMT_1133 phases=3 bus1=120211.1.2.3 bus2= 120201.1.2.3 linecode=10_3 length=0.10294 units=km
New Line.SMT_1135 phases=1 bus1=107071.2 bus2= 107091.2 linecode=1_1 length=0.10381 units=km
New Line.SMT_1136 phases=3 bus1=174831.1.2.3 bus2= 199461.1.2.3 linecode=10_3 length=0.13408 units=km
New Line.SMT_1137 phases=2 bus1=199461.1.2 bus2= 199471.1.2 linecode=18_2 length=0.07976 units=km
New Line.SMT_114 phases=2 bus1=102481.2.3 bus2= 102491.2.3 linecode=18_2 length=0.0894 units=km
New Line.SMT_1144 phases=3 bus1=89701.1.2.3 bus2= 89711.1.2.3 linecode=10_3 length=0.1136 units=km
New Line.SMT_1145 phases=3 bus1=127191.1.2.3 bus2= 127201.1.2.3 linecode=11_3 length=0.04332 units=km
New Line.SMT_1146 phases=2 bus1=79211.2.3 bus2= 79231.2.3 linecode=18_2 length=0.09831 units=km
New Line.SMT_1147 phases=1 bus1=103491.2 bus2= 102722.2 linecode=1_1 length=0.21276 units=km
New Line.SMT_1151 phases=2 bus1=132801.2.3 bus2= 132841.2.3 linecode=18_2 length=0.09847 units=km
New Line.SMT_1153 phases=1 bus1=102131.1 bus2= 102141.1 linecode=1_1 length=0.07923 units=km
New Line.SMT_1154 phases=3 bus1=77261.1.2.3 bus2= 770041.1.2.3 linecode=10_3 length=0.00078 units=km
New Line.SMT_1155 phases=1 bus1=76351.1 bus2= 76361.1 linecode=1_1 length=0.08645 units=km
New Line.SMT_1156 phases=3 bus1=83101.1.2.3 bus2= 83091.1.2.3 linecode=10_3 length=0.0857 units=km
New Line.SMT_1157 phases=3 bus1=127201.1.2.3 bus2= 127241.1.2.3 linecode=11_3 length=0.04925 units=km
New Line.SMT_1159 phases=1 bus1=106501.1 bus2= 203521.1 linecode=1_1 length=0.38983 units=km
New Line.SMT_1161 phases=3 bus1=171901.1.2.3 bus2= 188411.1.2.3 linecode=11_3 length=0.08276 units=km
New Line.SMT_1162 phases=1 bus1=107011.2 bus2= 107031.2 linecode=1_1 length=0.13719 units=km
New Line.SMT_1163 phases=1 bus1=80711.3 bus2= 80721.3 linecode=1_1 length=0.08889 units=km
New Line.SMT_1164 phases=3 bus1=127241.1.2.3 bus2= 127251.1.2.3 linecode=11_3 length=0.06315 units=km
New Line.SMT_1165 phases=1 bus1=79991.3 bus2= 80001.3 linecode=1_1 length=0.10455 units=km
New Line.SMT_1166 phases=1 bus1=76361.1 bus2= 76371.1 linecode=1_1 length=0.1522 units=km
New Line.SMT_1168 phases=1 bus1=76371.1 bus2= 76381.1 linecode=1_1 length=0.07788 units=km
New Line.SMT_1172 phases=2 bus1=98811.3.1 bus2= 98821.3.1 linecode=18_2 length=0.03912 units=km
New Line.SMT_1173 phases=2 bus1=115681.2.3 bus2= 116421.2.3 linecode=18_2 length=0.0924 units=km
New Line.SMT_1176 phases=1 bus1=120711.1 bus2= 120721.1 linecode=1_1 length=0.21598 units=km
New Line.SMT_1177 phases=2 bus1=137211.2.3 bus2= 137221.2.3 linecode=18_2 length=0.10139 units=km
New Line.SMT_1179 phases=1 bus1=119291.2 bus2= 636371.2 linecode=1_1 length=0.06845 units=km
New Line.SMT_1180 phases=1 bus1=40571.2 bus2= 636391.2 linecode=1_1 length=0.1938 units=km
New Line.SMT_1186 phases=1 bus1=208311.1 bus2= 208301.1 linecode=1_1 length=0.03298 units=km
New Line.SMT_1187 phases=1 bus1=208301.1 bus2= 208291.1 linecode=1_1 length=0.31641 units=km
New Line.SMT_1188 phases=1 bus1=208291.1 bus2= 635751.1 linecode=1_1 length=0.12654 units=km
New Line.SMT_1189 phases=1 bus1=635751.1 bus2= 635521.1 linecode=1_1 length=0.10054 units=km
New Line.SMT_119 phases=1 bus1=106611.2 bus2= 106621.2 linecode=1_1 length=0.15521 units=km
New Line.SMT_1190 phases=1 bus1=635521.1 bus2= 635531.1 linecode=1_1 length=0.27102 units=km
New Line.SMT_1191 phases=3 bus1=261171.1.2.3 bus2= 261161.1.2.3 linecode=10_3 length=0.10239 units=km
New Line.SMT_1192 phases=3 bus1=173231.1.2.3 bus2= 173221.1.2.3 linecode=10_3 length=0.10247 units=km
New Line.SMT_1193 phases=3 bus1=116731.1.2.3 bus2= 116721.1.2.3 linecode=11_3 length=0.10288 units=km
New Line.SMT_1196 phases=1 bus1=193131.2 bus2= 193151.2 linecode=1_1 length=0.10933 units=km
New Line.SMT_1197 phases=1 bus1=92711.1 bus2= 151811.1 linecode=1_1 length=0.06607 units=km
New Line.SMT_120 phases=3 bus1=134021.1.2.3 bus2= 134011.1.2.3 linecode=10_3 length=0.08207 units=km
New Line.SMT_1204 phases=3 bus1=82171.1.2.3 bus2= 82161.1.2.3 linecode=10_3 length=0.07225 units=km
New Line.SMT_12048 phases=3 bus1=121841.1.2.3.4 bus2= 121821.1.2.3.4 linecode=35_3 length=0.10481 units=km
New Line.SMT_1206 phases=1 bus1=138571.2 bus2= 120131.2 linecode=1_1 length=0.11722 units=km
New Line.SMT_1207 phases=3 bus1=95401.1.2.3 bus2= 95391.1.2.3 linecode=10_3 length=0.03132 units=km
New Line.SMT_1208 phases=1 bus1=120131.2 bus2= 120151.2 linecode=1_1 length=0.10672 units=km
New Line.SMT_1209 phases=2 bus1=222621.2.3 bus2= 222631.2.3 linecode=18_2 length=0.11439 units=km
New Line.SMT_121 phases=1 bus1=116231.2 bus2= 116391.2 linecode=1_1 length=0.11541 units=km
New Line.SMT_1211 phases=2 bus1=137221.2.3 bus2= 137231.2.3 linecode=18_2 length=0.15405 units=km
New Line.SMT_1213 phases=1 bus1=120151.2 bus2= 120161.2 linecode=1_1 length=0.11304 units=km
New Line.SMT_1214 phases=2 bus1=137201.2.3 bus2= 137211.2.3 linecode=18_2 length=0.0805 units=km
New Line.SMT_1215 phases=3 bus1=673571.1.2.3 bus2= 203451.1.2.3 linecode=13_3 length=0.06997 units=km
New Line.SMT_1216 phases=2 bus1=98791.3.1 bus2= 98801.3.1 linecode=18_2 length=0.07303 units=km
New Line.SMT_1217 phases=3 bus1=106511.1.2.3 bus2= 124331.1.2.3 linecode=10_3 length=0.05701 units=km
New Line.SMT_122 phases=2 bus1=8CF340.2.3 bus2= 115601.2.3 linecode=18_2 length=0.09793 units=km
New Line.SMT_1221 phases=2 bus1=173061.3.1 bus2= 208361.3.1 linecode=18_2 length=0.05701 units=km
New Line.SMT_1222 phases=2 bus1=143561.3.1 bus2= 143611.3.1 linecode=18_2 length=0.09338 units=km
New Line.SMT_1224 phases=1 bus1=118421.3 bus2= 426171.3 linecode=1_1 length=0.00778 units=km
New Line.SMT_1225 phases=1 bus1=97401.2 bus2= 138971.2 linecode=1_1 length=0.09402 units=km
New Line.SMT_1227 phases=3 bus1=145951.1.2.3 bus2= 145971.1.2.3 linecode=10_3 length=0.06044 units=km
New Line.SMT_1228 phases=3 bus1=116981.1.2.3 bus2= 116971.1.2.3 linecode=10_3 length=0.10124 units=km
New Line.SMT_123 phases=2 bus1=205351.2.3 bus2= 309671.2.3 linecode=18_2 length=0.1407 units=km
New Line.SMT_1232 phases=1 bus1=99461.2 bus2= 376171.2 linecode=1_1 length=0.18116 units=km
New Line.SMT_1233 phases=1 bus1=138531.2 bus2= 138541.2 linecode=1_1 length=0.14101 units=km
New Line.SMT_1234 phases=1 bus1=138541.2 bus2= 138551.2 linecode=1_1 length=0.13454 units=km
New Line.SMT_1237 phases=2 bus1=188531.1.2 bus2= 188541.1.2 linecode=18_2 length=0.08637 units=km
New Line.SMT_1238 phases=3 bus1=98041.1.2.3 bus2= 98071.1.2.3 linecode=10_3 length=0.1063 units=km
New Line.SMT_12387 phases=1 bus1=174661.2 bus2= 174671.2 linecode=1_1 length=0.10568 units=km
New Line.SMT_12388 phases=1 bus1=196661.2 bus2= 196671.2 linecode=1_1 length=0.06303 units=km
New Line.SMT_12389 phases=1 bus1=174671.2 bus2= 174681.2 linecode=1_1 length=0.08075 units=km
New Line.SMT_1239 phases=3 bus1=82061.1.2.3 bus2= 82081.1.2.3 linecode=10_3 length=0.08373 units=km
New Line.SMT_124 phases=1 bus1=325721.2 bus2= 325731.2 linecode=1_1 length=0.12458 units=km
New Line.SMT_1244 phases=1 bus1=8FR907.2 bus2= 141691.2 linecode=1_1 length=0.00419 units=km
New Line.SMT_12453 phases=1 bus1=115511.2 bus2= 115531.2 linecode=1_1 length=0.09323 units=km
New Line.SMT_1246 phases=3 bus1=89811.1.2.3 bus2= 89821.1.2.3 linecode=10_3 length=0.07324 units=km
New Line.SMT_1247 phases=3 bus1=147431.1.2.3 bus2= 147441.1.2.3 linecode=10_3 length=0.06251 units=km
New Line.SMT_1248 phases=3 bus1=170901.1.2.3 bus2= 156151.1.2.3 linecode=10_3 length=0.07622 units=km
New Line.SMT_1249 phases=1 bus1=196071.1 bus2= 196081.1 linecode=1_1 length=0.08887 units=km
New Line.SMT_1250 phases=2 bus1=132841.2.3 bus2= 132851.2.3 linecode=18_2 length=0.09153 units=km
New Line.SMT_1251 phases=2 bus1=188681.1.2 bus2= 189301.1.2 linecode=18_2 length=0.07134 units=km
New Line.SMT_1252 phases=3 bus1=89851.1.2.3 bus2= 89861.1.2.3 linecode=10_3 length=0.08188 units=km
New Line.SMT_1258 phases=2 bus1=98831.3.1 bus2= 98841.3.1 linecode=18_2 length=0.045 units=km
New Line.SMT_1259 phases=1 bus1=97471.2 bus2= 97461.2 linecode=1_1 length=0.07096 units=km
New Line.SMT_126 phases=3 bus1=220161.1.2.3 bus2= 220171.1.2.3 linecode=11_3 length=0.05381 units=km
New Line.SMT_1262 phases=2 bus1=79241.2.3 bus2= 79861.2.3 linecode=18_2 length=0.10424 units=km
New Line.SMT_1263 phases=3 bus1=122611.1.2.3 bus2= 122601.1.2.3 linecode=10_3 length=0.08184 units=km
New Line.SMT_1267 phases=2 bus1=116431.2.3 bus2= 116511.2.3 linecode=18_2 length=0.11021 units=km
New Line.SMT_1268 phases=3 bus1=176141.1.2.3 bus2= 348741.1.2.3 linecode=10_3 length=0.00316 units=km
New Line.SMT_127 phases=3 bus1=127131.1.2.3 bus2= 127141.1.2.3 linecode=11_3 length=0.077 units=km
New Line.SMT_1270 phases=2 bus1=221701.2.3 bus2= 183771.2.3 linecode=18_2 length=0.07603 units=km
New Line.SMT_1272 phases=3 bus1=717531.1.2.3 bus2= 139351.1.2.3 linecode=10_3 length=0.05189 units=km
New Line.SMT_1273 phases=1 bus1=119131.2 bus2= 119141.2 linecode=1_1 length=0.10959 units=km
New Line.SMT_1274 phases=3 bus1=80841.1.2.3 bus2= 80781.1.2.3 linecode=10_3 length=0.05215 units=km
New Line.SMT_1276 phases=1 bus1=371421.2 bus2= 371431.2 linecode=1_1 length=0.09702 units=km
New Line.SMT_1277 phases=1 bus1=107101.2 bus2= 53091.2 linecode=1_1 length=0.0771 units=km
New Line.SMT_1279 phases=1 bus1=79881.2 bus2= 356621.2 linecode=1_1 length=0.09625 units=km
New Line.SMT_1282 phases=3 bus1=173191.1.2.3 bus2= 173181.1.2.3 linecode=10_3 length=0.08588 units=km
New Line.SMT_1283 phases=3 bus1=217681.1.2.3 bus2= 221101.1.2.3 linecode=10_3 length=0.09464 units=km
New Line.SMT_1284 phases=1 bus1=79791.2 bus2= 79801.2 linecode=1_1 length=0.35672 units=km
New Line.SMT_1285 phases=3 bus1=144211.1.2.3 bus2= 144221.1.2.3 linecode=10_3 length=0.0653 units=km
New Line.SMT_1286 phases=1 bus1=32991.1 bus2= 33001.1 linecode=1_1 length=0.07694 units=km
New Line.SMT_12865 phases=1 bus1=205001.1 bus2= 210581.1 linecode=1_1 length=0.0389 units=km
New Line.SMT_1287 phases=2 bus1=32151.2.3 bus2= 32161.2.3 linecode=18_2 length=0.12956 units=km
New Line.SMT_1289 phases=1 bus1=80931.3 bus2= 302381.3 linecode=1_1 length=0.04301 units=km
New Line.SMT_1290 phases=3 bus1=206241.1.2.3 bus2= 206231.1.2.3 linecode=10_3 length=0.09705 units=km
New Line.SMT_1291 phases=1 bus1=192771.1 bus2= 192781.1 linecode=1_1 length=0.07932 units=km
New Line.SMT_12918 phases=1 bus1=191931.3 bus2= 191941.3 linecode=1_1 length=0.099 units=km
New Line.SMT_12919 phases=1 bus1=191941.3 bus2= 191951.3 linecode=1_1 length=0.07901 units=km
New Line.SMT_12920 phases=1 bus1=191951.3 bus2= 191961.3 linecode=1_1 length=0.11435 units=km
New Line.SMT_12928 phases=1 bus1=556041.1 bus2= 556051.1 linecode=1_1 length=0.13036 units=km
New Line.SMT_12929 phases=1 bus1=556051.1 bus2= 556061.1 linecode=1_1 length=0.17584 units=km
New Line.SMT_1298 phases=3 bus1=168401.1.2.3 bus2= 168411.1.2.3 linecode=10_3 length=0.10324 units=km
New Line.SMT_1299 phases=3 bus1=146201.1.2.3 bus2= 146181.1.2.3 linecode=10_3 length=0.11992 units=km
New Line.SMT_13 phases=3 bus1=137682.1.2.3 bus2= 137691.1.2.3 linecode=10_3 length=0.07009 units=km
New Line.SMT_130 phases=1 bus1=106721.2 bus2= 106731.2 linecode=1_1 length=0.21483 units=km
New Line.SMT_1300 phases=2 bus1=205331.2.3 bus2= 205341.2.3 linecode=18_2 length=0.09386 units=km
New Line.SMT_1301 phases=1 bus1=99941.3 bus2= 556291.3 linecode=1_1 length=0.00255 units=km
New Line.SMT_1302 phases=3 bus1=361531.1.2.3 bus2= 322711.1.2.3 linecode=10_3 length=0.09044 units=km
New Line.SMT_1303 phases=3 bus1=261281.1.2.3 bus2= 299841.1.2.3 linecode=10_3 length=0.09245 units=km
New Line.SMT_1304 phases=3 bus1=261281.1.2.3 bus2= 379401.1.2.3 linecode=10_3 length=0.06357 units=km
New Line.SMT_1305 phases=2 bus1=118621.3.1 bus2= 118631.3.1 linecode=18_2 length=0.0892 units=km
New Line.SMT_1309 phases=1 bus1=76391.1 bus2= 76401.1 linecode=1_1 length=0.07068 units=km
New Line.SMT_131 phases=3 bus1=134011.1.2.3 bus2= 134001.1.2.3 linecode=10_3 length=0.13438 units=km
New Line.SMT_1311 phases=1 bus1=196081.1 bus2= 196101.1 linecode=1_1 length=0.12025 units=km
New Line.SMT_1312 phases=3 bus1=99991.1.2.3 bus2= 100001.1.2.3 linecode=11_3 length=0.06213 units=km
New Line.SMT_1313 phases=2 bus1=98861.3.1 bus2= 98871.3.1 linecode=18_2 length=0.07106 units=km
New Line.SMT_13141 phases=1 bus1=191921.3 bus2= 191931.3 linecode=1_1 length=0.08001 units=km
New Line.SMT_1315 phases=3 bus1=206131.1.2.3 bus2= 206121.1.2.3 linecode=10_3 length=0.45651 units=km
New Line.SMT_1316 phases=2 bus1=286401.2.3 bus2= 286411.2.3 linecode=18_2 length=0.12625 units=km
New Line.SMT_1317 phases=3 bus1=147571.1.2.3 bus2= 147581.1.2.3 linecode=10_3 length=0.1423 units=km
New Line.SMT_1318 phases=2 bus1=199471.1.2 bus2= 199481.1.2 linecode=18_2 length=0.09091 units=km
New Line.SMT_1319 phases=2 bus1=99481.2.3 bus2= 99541.2.3 linecode=18_2 length=0.1085 units=km
New Line.SMT_1323 phases=3 bus1=80271.1.2.3 bus2= 80251.1.2.3 linecode=10_3 length=0.0494 units=km
New Line.SMT_1324 phases=3 bus1=94871.1.2.3 bus2= 80271.1.2.3 linecode=10_3 length=0.06277 units=km
New Line.SMT_1325 phases=2 bus1=174151.2.3 bus2= 174161.2.3 linecode=18_2 length=0.16836 units=km
New Line.SMT_1327 phases=3 bus1=723891.1.2.3 bus2= 144211.1.2.3 linecode=10_3 length=0.07749 units=km
New Line.SMT_133 phases=2 bus1=203251.1.2 bus2= 203261.1.2 linecode=18_2 length=0.10069 units=km
New Line.SMT_1333 phases=3 bus1=13501.1.2.3 bus2= 13511.1.2.3 linecode=11_3 length=0.08134 units=km
New Line.SMT_1334 phases=3 bus1=176621.1.2.3 bus2= 176611.1.2.3 linecode=10_3 length=0.08305 units=km
New Line.SMT_1335 phases=2 bus1=286391.2.3 bus2= 286401.2.3 linecode=18_2 length=0.1288 units=km
New Line.SMT_13364 phases=2 bus1=95061.3.1 bus2= 98771.3.1 linecode=18_2 length=0.07244 units=km
New Line.SMT_1337 phases=1 bus1=79781.2 bus2= 79791.2 linecode=1_1 length=0.17008 units=km
New Line.SMT_1338 phases=3 bus1=122591.1.2.3 bus2= 122581.1.2.3 linecode=10_3 length=0.08851 units=km
New Line.SMT_134 phases=2 bus1=221781.2.3 bus2= 221771.2.3 linecode=18_2 length=0.11261 units=km
New Line.SMT_1340 phases=3 bus1=127171.1.2.3 bus2= 127181.1.2.3 linecode=11_3 length=0.1183 units=km
New Line.SMT_13414 phases=3 bus1=349091.1.2.3 bus2= 349101.1.2.3 linecode=10_3 length=0.1112 units=km
New Line.SMT_13432 phases=3 bus1=184731.1.2.3 bus2= 188051.1.2.3 linecode=10_3 length=0.16992 units=km
New Line.SMT_1344 phases=3 bus1=89821.1.2.3 bus2= 89831.1.2.3 linecode=10_3 length=0.07465 units=km
New Line.SMT_1345 phases=3 bus1=174861.1.2.3 bus2= 174851.1.2.3 linecode=10_3 length=0.07463 units=km
New Line.SMT_1346 phases=3 bus1=147441.1.2.3 bus2= 147481.1.2.3 linecode=10_3 length=0.10382 units=km
New Line.SMT_1348 phases=2 bus1=134091.3.1 bus2= 234061.3.1 linecode=18_2 length=0.00258 units=km
New Line.SMT_1350 phases=3 bus1=261251.1.2.3 bus2= 261261.1.2.3 linecode=10_3 length=0.11045 units=km
New Line.SMT_1354 phases=3 bus1=147561.1.2.3 bus2= 147571.1.2.3 linecode=10_3 length=0.11642 units=km
New Line.SMT_1355 phases=3 bus1=217691.1.2.3 bus2= 217681.1.2.3 linecode=10_3 length=0.04892 units=km
New Line.SMT_1356 phases=3 bus1=89841.1.2.3 bus2= 89851.1.2.3 linecode=10_3 length=0.07382 units=km
New Line.SMT_1357 phases=2 bus1=199501.1.2 bus2= 199511.1.2 linecode=18_2 length=0.09835 units=km
New Line.SMT_1358 phases=3 bus1=115151.1.2.3 bus2= 115141.1.2.3 linecode=10_3 length=0.06586 units=km
New Line.SMT_1361 phases=3 bus1=585601.1.2.3 bus2= 146171.1.2.3 linecode=10_3 length=0.05001 units=km
New Line.SMT_1362 phases=1 bus1=79241.2 bus2= 79771.2 linecode=1_1 length=0.05771 units=km
New Line.SMT_1363 phases=3 bus1=338601.1.2.3 bus2= 338591.1.2.3 linecode=28_3 length=0.07471 units=km
New Line.SMT_1364 phases=1 bus1=371411.2 bus2= 371421.2 linecode=1_1 length=0.15384 units=km
New Line.SMT_1365 phases=1 bus1=107111.2 bus2= 107101.2 linecode=1_1 length=0.0441 units=km
New Line.SMT_1366 phases=3 bus1=90601.1.2.3 bus2= 90611.1.2.3 linecode=10_3 length=0.10395 units=km
New Line.SMT_1368 phases=2 bus1=143641.3.1 bus2= 143661.3.1 linecode=18_2 length=0.08112 units=km
New Line.SMT_1369 phases=1 bus1=196921.2 bus2= 196931.2 linecode=1_1 length=0.10662 units=km
New Line.SMT_1370 phases=1 bus1=8CF923.3 bus2= 352471.3 linecode=1_1 length=0.07502 units=km
New Line.SMT_1371 phases=1 bus1=141731.2 bus2= 141741.2 linecode=1_1 length=0.11428 units=km
New Line.SMT_1374 phases=1 bus1=356621.2 bus2= 340581.2 linecode=1_1 length=0.08645 units=km
New Line.SMT_1375 phases=3 bus1=90611.1.2.3 bus2= 90621.1.2.3 linecode=10_3 length=0.22019 units=km
New Line.SMT_1376 phases=3 bus1=174911.1.2.3 bus2= 174921.1.2.3 linecode=10_3 length=0.05277 units=km
New Line.SMT_1377 phases=2 bus1=122881.3.1 bus2= 122891.3.1 linecode=18_2 length=0.07855 units=km
New Line.SMT_1378 phases=1 bus1=118711.1 bus2= 118731.1 linecode=1_1 length=0.0642 units=km
New Line.SMT_138 phases=2 bus1=205351.2.3 bus2= 205361.2.3 linecode=18_2 length=0.09901 units=km
New Line.SMT_1383 phases=3 bus1=13521.1.2.3 bus2= 13531.1.2.3 linecode=11_3 length=0.09142 units=km
New Line.SMT_1384 phases=3 bus1=137491.1.2.3 bus2= 137481.1.2.3 linecode=10_3 length=0.10208 units=km
New Line.SMT_1385 phases=1 bus1=7FS566.2 bus2= 175471.2 linecode=1_1 length=0.02756 units=km
New Line.SMT_1386 phases=3 bus1=206121.1.2.3 bus2= 206111.1.2.3 linecode=10_3 length=0.0658 units=km
New Line.SMT_1387 phases=3 bus1=410621.1.2.3 bus2= 106581.1.2.3 linecode=10_3 length=0.20111 units=km
New Line.SMT_13890 phases=3 bus1=200471.1.2.3 bus2= 184721.1.2.3 linecode=10_3 length=0.03025 units=km
New Line.SMT_1392 phases=3 bus1=322711.1.2.3 bus2= 322721.1.2.3 linecode=10_3 length=0.09354 units=km
New Line.SMT_1394 phases=1 bus1=196911.2 bus2= 196921.2 linecode=1_1 length=0.10645 units=km
New Line.SMT_13983 phases=3 bus1=349111.1.2.3 bus2= 349121.1.2.3 linecode=10_3 length=0.06166 units=km
New Line.SMT_140 phases=1 bus1=118741.1 bus2= 118751.1 linecode=1_1 length=0.20384 units=km
New Line.SMT_1400 phases=3 bus1=206201.1.2.3 bus2= 206191.1.2.3 linecode=10_3 length=0.1179 units=km
New Line.SMT_1401 phases=1 bus1=192141.3 bus2= 169581.3 linecode=1_1 length=0.0832 units=km
New Line.SMT_1402 phases=2 bus1=202581.1.2 bus2= 202591.1.2 linecode=18_2 length=0.07906 units=km
New Line.SMT_1403 phases=2 bus1=79871.2.3 bus2= 79881.2.3 linecode=18_2 length=0.101 units=km
New Line.SMT_1404 phases=1 bus1=620351.3 bus2= 77101.3 linecode=1_1 length=0.07782 units=km
New Line.SMT_1405 phases=1 bus1=32981.1 bus2= 32991.1 linecode=1_1 length=0.08881 units=km
New Line.SMT_1406 phases=3 bus1=116961.1.2.3 bus2= 102331.1.2.3 linecode=10_3 length=0.09729 units=km
New Line.SMT_14088 phases=3 bus1=331301.1.2.3 bus2= 304161.1.2.3 linecode=10_3 length=0.11735 units=km
New Line.SMT_1410 phases=3 bus1=146671.1.2.3 bus2= 146681.1.2.3 linecode=10_3 length=0.08201 units=km
New Line.SMT_1411 phases=2 bus1=81261.3.1 bus2= 81271.3.1 linecode=18_2 length=0.10531 units=km
New Line.SMT_14115 phases=3 bus1=304171.1.2.3 bus2= 304181.1.2.3 linecode=10_3 length=0.08096 units=km