New Line.SBT_31627 phases=2 bus1=ET25_1733.1.4 bus2=BT343122.1.4 linecode=60_2 length=0.04885 units=km
New Line.SBT_2704 phases=4 bus1=BT184711.1.2.3.4 bus2=BT345781.1.2.3.4 linecode=73_4 length=0.05803 units=km
New Line.SBT_28743 phases=4 bus1=BT345781.1.2.3.4 bus2=BT345791.1.2.3.4 linecode=73_4 length=0.04743 units=km
New Line.SBT_3585 phases=4 bus1=ET4_10.1.2.3.4 bus2=BT331351.1.2.3.4 linecode=73_4 length=0.08684 units=km
New Line.SBT_3708 phases=4 bus1=BT184721.1.2.3.4 bus2=BT184711.1.2.3.4 linecode=73_4 length=0.04418 units=km
New Line.SBT_15592 phases=4 bus1=BT184721.1.2.3.4 bus2=BT644491.1.2.3.4 linecode=97_4 length=0.03321 units=km
New Line.SBT_16421 phases=4 bus1=BT184731.1.2.3.4 bus2=BT200471.1.2.3.4 linecode=97_4 length=0.01 units=km
New Line.SBT_20553 phases=4 bus1=ET4_10.1.2.3.4 bus2=BT184731.1.2.3.4 linecode=97_4 length=0.08709 units=km
New Line.SBT_21003 phases=4 bus1=BT200471.1.2.3.4 bus2=BT184721.1.2.3.4 linecode=97_4 length=0.03025 units=km
New Line.SBT_16219 phases=3 bus1=BT86191.1.2.4 bus2=BT706511.1.2.4 linecode=44_3 length=0.05 units=km
New Line.SBT_13011 phases=3 bus1=BT86201.1.2.4 bus2=BT610291.1.2.4 linecode=44_3 length=0.04105 units=km
New Line.SBT_21358 phases=3 bus1=ET4_1295.1.2.4 bus2=BT103651.1.2.4 linecode=44_3 length=0.11125 units=km
New Line.SBT_21359 phases=2 bus1=ET4_1295.1.4 bus2=BT103661.1.4 linecode=60_2 length=0.20459 units=km
New Line.SBT_28702 phases=3 bus1=BT103671.1.2.4 bus2=BT86191.1.2.4 linecode=44_3 length=0.1044 units=km
New Line.SBT_4727 phases=3 bus1=ET4_1295.1.2.4 bus2=BT103671.1.2.4 linecode=44_3 length=0.117 units=km
New Line.SBT_5009 phases=3 bus1=BT103671.1.2.4 bus2=BT103681.1.2.4 linecode=44_3 length=0.08633 units=km
New Line.SBT_5023 phases=3 bus1=BT86191.1.2.4 bus2=BT86201.1.2.4 linecode=44_3 length=0.13697 units=km
New Line.SBT_5024 phases=2 bus1=BT86271.1.4 bus2=BT86281.1.4 linecode=60_2 length=0.07267 units=km
New Line.SBT_5025 phases=3 bus1=ET4_1296.1.2.4 bus2=BT86271.1.2.4 linecode=44_3 length=0.03614 units=km
New Line.SBT_4966 phases=3 bus1=ET4_1296.1.2.4 bus2=BT86251.1.2.4 linecode=44_3 length=0.05609 units=km
New Line.SBT_4968 phases=2 bus1=BT122461.2.4 bus2=BT122471.2.4 linecode=60_2 length=0.08476 units=km
New Line.SBT_4360 phases=3 bus1=BT86221.1.2.4 bus2=BT86211.1.2.4 linecode=44_3 length=0.08287 units=km
New Line.SBT_4365 phases=3 bus1=BT122501.1.2.4 bus2=BT122511.1.2.4 linecode=44_3 length=0.10072 units=km
New Line.SBT_4366 phases=3 bus1=BT122511.1.2.4 bus2=BT122521.1.2.4 linecode=44_3 length=0.05532 units=km
New Line.SBT_4367 phases=3 bus1=BT86211.1.2.4 bus2=BT99951.1.2.4 linecode=44_3 length=0.14073 units=km
New Line.SBT_4368 phases=2 bus1=BT122521.1.4 bus2=BT122531.1.4 linecode=60_2 length=0.26715 units=km
New Line.SBT_4544 phases=3 bus1=BT86231.1.2.4 bus2=BT86221.1.2.4 linecode=44_3 length=0.09043 units=km
New Line.SBT_4637 phases=3 bus1=BT122491.1.2.4 bus2=BT122501.1.2.4 linecode=44_3 length=0.06147 units=km
New Line.SBT_4638 phases=2 bus1=BT122471.2.4 bus2=BT122481.2.4 linecode=60_2 length=0.07569 units=km
New Line.SBT_21337 phases=3 bus1=BT86271.1.2.4 bus2=BT122461.1.2.4 linecode=44_3 length=0.17053 units=km
New Line.SBT_21338 phases=3 bus1=BT122461.1.2.4 bus2=BT122491.1.2.4 linecode=44_3 length=0.05281 units=km
New Line.SBT_21339 phases=3 bus1=BT86251.1.2.4 bus2=BT86231.1.2.4 linecode=44_3 length=0.10066 units=km
New Line.SBT_21096 phases=2 bus1=BT86281.1.4 bus2=BT86291.1.4 linecode=60_2 length=0.10234 units=km
New Line.SBT_21118 phases=4 bus1=ET4_1399.1.2.3.4 bus2=BT331291.1.2.3.4 linecode=97_4 length=0.05745 units=km
New Line.SBT_20995 phases=4 bus1=ET4_1399.1.2.3.4 bus2=BT749121.1.2.3.4 linecode=97_4 length=0.02 units=km
New Line.SBT_20551 phases=4 bus1=BT331141.1.2.3.4 bus2=BT331151.1.2.3.4 linecode=73_4 length=0.05515 units=km
New Line.SBT_20552 phases=4 bus1=BT331161.1.2.3.4 bus2=BT331172.1.2.3.4 linecode=73_4 length=0.03314 units=km
New Line.SBT_14860 phases=4 bus1=BT331151.1.2.3.4 bus2=BT331161.1.2.3.4 linecode=73_4 length=0.03202 units=km
New Line.SBT_26417 phases=4 bus1=BT331251.1.2.3.4 bus2=BT243351.1.2.3.4 linecode=73_4 length=0.08914 units=km
New Line.SBT_4587 phases=4 bus1=BT331261.1.2.3.4 bus2=BT331271.1.2.3.4 linecode=97_4 length=0.04851 units=km
New Line.SBT_4369 phases=4 bus1=ET4_1399.1.2.3.4 bus2=BT331141.1.2.3.4 linecode=73_4 length=0.04518 units=km
New Line.SBT_29223 phases=4 bus1=BT749121.1.2.3.4 bus2=BT331261.1.2.3.4 linecode=97_4 length=0.01544 units=km
New Line.SBT_31407 phases=4 bus1=BT331261.1.2.3.4 bus2=BT769681.1.2.3.4 linecode=141_4 length=0.02542 units=km
New Line.SBT_31408 phases=4 bus1=BT769681.1.2.3.4 bus2=BT769691.1.2.3.4 linecode=141_4 length=0.03268 units=km
New Line.SBT_31409 phases=4 bus1=BT769691.1.2.3.4 bus2=BT769701.1.2.3.4 linecode=141_4 length=0.03252 units=km
New Line.SBT_31410 phases=4 bus1=BT769701.1.2.3.4 bus2=BT769711.1.2.3.4 linecode=141_4 length=0.03233 units=km
New Line.SBT_31411 phases=4 bus1=BT769711.1.2.3.4 bus2=BT769721.1.2.3.4 linecode=141_4 length=0.03284 units=km
New Line.SBT_31412 phases=4 bus1=BT769721.1.2.3.4 bus2=BT769731.1.2.3.4 linecode=141_4 length=0.03255 units=km
New Line.SBT_3582 phases=4 bus1=BT331271.1.2.3.4 bus2=BT331251.1.2.3.4 linecode=97_4 length=0.05657 units=km
New Line.SBT_3583 phases=3 bus1=ET4_1400.1.2.4 bus2=BT440501.1.2.4 linecode=59_3 length=0.13559 units=km
New Line.SBT_4387 phases=3 bus1=BT440501.1.2.4 bus2=BT440511.1.2.4 linecode=59_3 length=0.04809 units=km
New Line.SBT_31625 phases=2 bus1=ET4_1446.2.4 bus2=BT97751.2.4 linecode=60_2 length=0.08272 units=km
New Line.SBT_31634 phases=2 bus1=ET4_1446.2.4 bus2=BT771321.2.4 linecode=60_2 length=0.12344 units=km
New Line.SBT_31633 phases=2 bus1=ET4_1447.1.4 bus2=BT771301.1.4 linecode=62_2 length=0.05622 units=km
New Line.SBT_36185 phases=2 bus1=BT816391.1.4 bus2=BT97701.1.4 linecode=60_2 length=0.11263 units=km
New Line.SBT_36186 phases=2 bus1=BT97701.1.4 bus2=BT97711.1.4 linecode=60_2 length=0.13107 units=km
New Line.SBT_36187 phases=2 bus1=BT97691.1.4 bus2=BT816391.1.4 linecode=60_2 length=0.03189 units=km
New Line.SBT_4400 phases=3 bus1=BT97681.1.2.4 bus2=BT97691.1.2.4 linecode=44_3 length=0.06306 units=km
New Line.SBT_20562 phases=3 bus1=ET4_1447.1.2.4 bus2=BT97681.1.2.4 linecode=44_3 length=0.03397 units=km
New Line.SBT_21015 phases=2 bus1=BT97711.1.4 bus2=BT97721.1.4 linecode=60_2 length=0.10989 units=km
New Line.SBT_20559 phases=2 bus1=BT630811.1.4 bus2=BT97871.1.4 linecode=60_2 length=0.24798 units=km
New Line.SBT_18287 phases=3 bus1=ET4_1448.1.2.4 bus2=BT97861.1.2.4 linecode=44_3 length=0.06661 units=km
New Line.SBT_13417 phases=2 bus1=BT97861.1.4 bus2=BT630811.1.4 linecode=60_2 length=0.12155 units=km
New Line.SBT_20565 phases=4 bus1=ET4_1753.1.2.3.4 bus2=BT345681.1.2.3.4 linecode=97_4 length=0.00854 units=km
New Line.SBT_20566 phases=4 bus1=ET4_1753.1.2.3.4 bus2=BT331371.1.2.3.4 linecode=97_4 length=0.09202 units=km
New Line.SBT_23522 phases=2 bus1=BT345751.2.4 bus2=BT345761.2.4 linecode=60_2 length=0.19166 units=km
New Line.SBT_3608 phases=4 bus1=ET4_1753.1.2.3.4 bus2=BT345721.1.2.3.4 linecode=97_4 length=0.01334 units=km
New Line.SBT_3609 phases=4 bus1=BT331371.1.2.3.4 bus2=BT304161.1.2.3.4 linecode=97_4 length=0.08205 units=km
New Line.SBT_3610 phases=4 bus1=BT345681.1.2.3.4 bus2=BT345691.1.2.3.4 linecode=97_4 length=0.04827 units=km
New Line.SBT_8778 phases=3 bus1=BT345741.1.2.4 bus2=BT345751.1.2.4 linecode=44_3 length=0.08688 units=km
New Line.SBT_8779 phases=4 bus1=BT345731.1.2.3.4 bus2=BT345741.1.2.3.4 linecode=97_4 length=0.08005 units=km
New Line.SBT_8780 phases=4 bus1=BT345721.1.2.3.4 bus2=BT345731.1.2.3.4 linecode=97_4 length=0.16072 units=km
New Line.SBT_9625 phases=4 bus1=BT345731.1.2.3.4 bus2=BT345771.1.2.3.4 linecode=97_4 length=0.06986 units=km
New Line.SBT_6595 phases=2 bus1=ET4_1985.1.4 bus2=BT118481.1.4 linecode=60_2 length=0.06831 units=km
New Line.SBT_5392 phases=3 bus1=ET4_2444.1.2.4 bus2=BT360561.1.2.4 linecode=59_3 length=0.117 units=km
New Line.SBT_5202 phases=4 bus1=BT331181.1.2.3.4 bus2=BT331171.1.2.3.4 linecode=97_4 length=0.05457 units=km
New Line.SBT_35226 phases=4 bus1=BT808541.1.2.3.4 bus2=BT331181.1.2.3.4 linecode=97_4 length=0.03338 units=km
New Line.SBT_35227 phases=4 bus1=BT331201.1.2.3.4 bus2=BT808541.1.2.3.4 linecode=97_4 length=0.03446 units=km
New Line.SBT_33734 phases=4 bus1=BT539651.1.2.3.4 bus2=BT349121.1.2.3.4 linecode=16_4 length=0.02138 units=km
New Line.SBT_33735 phases=4 bus1=BT659691.1.2.3.4 bus2=BT539651.1.2.3.4 linecode=75_4 length=0.02396 units=km
New Line.SBT_33737 phases=3 bus1=BT794131.1.2.4 bus2=BT620091.1.2.4 linecode=59_3 length=0.05745 units=km
New Line.SBT_33738 phases=4 bus1=ET4_2715.1.2.3.4 bus2=BT659691.1.2.3.4 linecode=16_4 length=0.00399 units=km
New Line.SBT_33739 phases=3 bus1=BT620071.1.2.4 bus2=BT794121.1.2.4 linecode=59_3 length=0.08294 units=km
New Line.SBT_33740 phases=3 bus1=BT794121.1.2.4 bus2=BT794131.1.2.4 linecode=59_3 length=0.02804 units=km
New Line.SBT_31253 phases=3 bus1=BT331201.1.2.4 bus2=BT331211.1.2.4 linecode=44_3 length=0.02335 units=km
New Line.SBT_27322 phases=4 bus1=BT539671.1.2.3.4 bus2=BT539681.1.2.3.4 linecode=75_4 length=0.05807 units=km
New Line.SBT_27323 phases=4 bus1=BT659691.1.2.3.4 bus2=BT539701.1.2.3.4 linecode=75_4 length=0.05107 units=km
New Line.SBT_27324 phases=2 bus1=BT539701.1.4 bus2=BT349131.1.4 linecode=62_2 length=0.0364 units=km
New Line.SBT_27326 phases=3 bus1=BT620091.1.2.4 bus2=BT620101.1.2.4 linecode=59_3 length=0.10073 units=km
New Line.SBT_21312 phases=4 bus1=BT349121.1.2.3.4 bus2=BT331201.1.2.3.4 linecode=73_4 length=0.04115 units=km
New Line.SBT_15594 phases=4 bus1=ET4_2715.1.2.3.4 bus2=BT539671.1.2.3.4 linecode=75_4 length=0.05803 units=km
New Line.SBT_15595 phases=4 bus1=BT539681.1.2.3.4 bus2=BT539691.1.2.3.4 linecode=75_4 length=0.04219 units=km
New Line.SBT_15597 phases=4 bus1=BT659691.1.2.3.4 bus2=BT659671.1.2.3.4 linecode=75_4 length=0.01243 units=km
New Line.SBT_15598 phases=4 bus1=BT539701.1.2.3.4 bus2=BT620061.1.2.3.4 linecode=73_4 length=0.06708 units=km
New Line.SBT_15599 phases=4 bus1=BT620061.1.2.3.4 bus2=BT620071.1.2.3.4 linecode=73_4 length=0.04589 units=km
New Line.SBT_21994 phases=2 bus1=ET4_2894.1.4 bus2=BT312851.1.4 linecode=60_2 length=0.06676 units=km
New Line.SBT_6124 phases=2 bus1=BT312851.1.4 bus2=BT312861.1.4 linecode=60_2 length=0.10911 units=km
New Line.SBT_26095 phases=3 bus1=BT147361.1.2.4 bus2=BT147371.1.2.4 linecode=59_3 length=0.109 units=km
New Line.SBT_13360 phases=3 bus1=BT147381.1.2.4 bus2=BT612121.1.2.4 linecode=59_3 length=0.08828 units=km
New Line.SBT_13369 phases=3 bus1=BT147381.1.2.4 bus2=BT147361.1.2.4 linecode=59_3 length=0.08008 units=km
New Line.SBT_31626 phases=3 bus1=ET4_3135.1.2.4 bus2=BT147381.1.2.4 linecode=80_3 length=0.07787 units=km
New Line.SBT_34823 phases=3 bus1=ET4_3198.1.2.4 bus2=BT630331.1.2.4 linecode=59_3 length=0.07824 units=km
New Line.SBT_13552 phases=2 bus1=ET4_3198.1.4 bus2=BT630321.1.4 linecode=62_2 length=0.09535 units=km
New Line.SBT_10370 phases=2 bus1=BT630321.1.4 bus2=BT556281.1.4 linecode=62_2 length=0.17614 units=km
New Line.SBT_14230 phases=2 bus1=BT556281.1.4 bus2=BT635801.1.4 linecode=62_2 length=0.09751 units=km
New Line.SBT_24397 phases=2 bus1=BT556371.1.4 bus2=BT118441.1.4 linecode=60_2 length=0.09126 units=km
New Line.SBT_25155 phases=2 bus1=ET4_3212.1.4 bus2=BT556371.1.4 linecode=60_2 length=0.09463 units=km
New Line.SBT_29266 phases=2 bus1=BT611611.1.4 bus2=BT750051.1.4 linecode=62_2 length=0.02336 units=km
New Line.SBT_28107 phases=2 bus1=ET4_3492.1.4 bus2=BT611611.1.4 linecode=62_2 length=0.09849 units=km
New Line.SBT_4350 phases=4 bus1=BT561161.1.2.3.4 bus2=BT561151.1.2.3.4 linecode=73_4 length=0.03612 units=km
New Line.SBT_26628 phases=4 bus1=BT561121.1.2.3.4 bus2=BT561131.1.2.3.4 linecode=73_4 length=0.02961 units=km
New Line.SBT_14332 phases=4 bus1=BT561131.1.2.3.4 bus2=BT561141.1.2.3.4 linecode=73_4 length=0.04607 units=km
New Line.SBT_20984 phases=4 bus1=ET4_3585.1.2.3.4 bus2=BT561161.1.2.3.4 linecode=73_4 length=0.04623 units=km
New Line.SBT_20986 phases=4 bus1=ET4_3585.1.2.3.4 bus2=BT561121.1.2.3.4 linecode=73_4 length=0.03905 units=km
New Line.SBT_20563 phases=3 bus1=BT364832.1.2.4 bus2=BT364841.1.2.4 linecode=59_3 length=0.06712 units=km
New Line.SBT_18359 phases=3 bus1=ET4_3843.1.2.4 bus2=BT90801.1.2.4 linecode=59_3 length=0.01414 units=km
New Line.SBT_17449 phases=3 bus1=ET4_3843.1.2.4 bus2=BT364832.1.2.4 linecode=59_3 length=0.02702 units=km
New Line.SBT_24588 phases=2 bus1=BT364832.1.4 bus2=BT90811.1.4 linecode=62_2 length=0.01811 units=km
New Line.SBT_3598 phases=3 bus1=BT364841.1.2.4 bus2=BT364851.1.2.4 linecode=59_3 length=0.0609 units=km
New Line.SBT_26767 phases=2 bus1=ET4_3967.1.4 bus2=BT118351.1.4 linecode=60_2 length=0.09902 units=km
New Line.SBT_14581 phases=2 bus1=BT118351.1.4 bus2=BT118341.1.4 linecode=60_2 length=0.08902 units=km
New Line.SBT_21504 phases=3 bus1=BT118401.1.2.4 bus2=BT118391.1.2.4 linecode=44_3 length=0.09552 units=km
New Line.SBT_34140 phases=3 bus1=ET4_4055.1.2.4 bus2=BT118422.1.2.4 linecode=44_3 length=0.05224 units=km
New Line.SBT_34141 phases=3 bus1=BT118422.1.2.4 bus2=BT197751.1.2.4 linecode=91_3 length=0.0801 units=km
New Line.SBT_5259 phases=3 bus1=BT118391.1.2.4 bus2=BT118382.1.2.4 linecode=44_3 length=0.06966 units=km
New Line.SBT_5260 phases=3 bus1=ET4_4055.1.2.4 bus2=BT118401.1.2.4 linecode=44_3 length=0.05235 units=km
New Line.SBT_28850 phases=4 bus1=ET4_4115.1.2.3.4 bus2=BT345821.1.2.3.4 linecode=73_4 length=0.05145 units=km
New Line.SBT_24873 phases=4 bus1=BT345821.1.2.3.4 bus2=BT345831.1.2.3.4 linecode=73_4 length=0.08161 units=km
New Line.SBT_16422 phases=4 bus1=ET4_4392.1.2.3.4 bus2=BT180731.1.2.3.4 linecode=58_4 length=0.0709 units=km
New Line.SBT_16423 phases=4 bus1=BT180731.1.2.3.4 bus2=BT166241.1.2.3.4 linecode=58_4 length=0.07428 units=km
New Line.SBT_16184 phases=4 bus1=BT254971.1.2.3.4 bus2=BT717561.1.2.3.4 linecode=58_4 length=0.03146 units=km
New Line.SBT_16185 phases=4 bus1=BT717571.1.2.3.4 bus2=BT717581.1.2.3.4 linecode=58_4 length=0.04709 units=km
New Line.SBT_27653 phases=4 bus1=BT717561.1.2.3.4 bus2=BT717571.1.2.3.4 linecode=58_4 length=0.0405 units=km
New Line.SBT_27788 phases=4 bus1=ET4_4392.1.2.3.4 bus2=BT254971.1.2.3.4 linecode=58_4 length=0.04901 units=km
New Line.SBT_27789 phases=4 bus1=BT166241.1.2.3.4 bus2=BT666791.1.2.3.4 linecode=58_4 length=0.04422 units=km
New Line.SBT_28170 phases=3 bus1=ET4_5018.1.2.4 bus2=BT63051.1.2.4 linecode=44_3 length=0.09246 units=km
New Line.SBT_3593 phases=3 bus1=ET4_5018.1.2.4 bus2=BT85261.1.2.4 linecode=44_3 length=0.12267 units=km
New Line.SBT_33604 phases=4 bus1=ET4_506.1.2.3.4 bus2=BT122621.1.2.3.4 linecode=73_4 length=0.08628 units=km
New Line.SBT_28979 phases=3 bus1=BT118371.1.2.4 bus2=BT118381.1.2.4 linecode=44_3 length=0.07765 units=km
New Line.SBT_5589 phases=3 bus1=ET4_506.1.2.4 bus2=BT122641.1.2.4 linecode=44_3 length=0.0914 units=km
New Line.SBT_18042 phases=3 bus1=BT122641.1.2.4 bus2=BT118371.1.2.4 linecode=44_3 length=0.10838 units=km
New Line.SBT_20583 phases=2 bus1=BT220611.1.4 bus2=BT220621.1.4 linecode=60_2 length=0.0978 units=km
New Line.SBT_20584 phases=3 bus1=BT220651.1.2.4 bus2=BT220661.1.2.4 linecode=44_3 length=0.10551 units=km
New Line.SBT_20592 phases=2 bus1=BT220581.2.4 bus2=BT220571.2.4 linecode=60_2 length=0.07424 units=km
New Line.SBT_16850 phases=2 bus1=BT220611.1.4 bus2=BT313621.1.4 linecode=60_2 length=0.09183 units=km
New Line.SBT_2966 phases=3 bus1=BT220631.1.2.4 bus2=BT220641.1.2.4 linecode=44_3 length=0.06395 units=km
New Line.SBT_2967 phases=3 bus1=ET4_5069.1.2.4 bus2=BT220631.1.2.4 linecode=44_3 length=0.03736 units=km
New Line.SBT_2968 phases=2 bus1=ET4_5069.1.4 bus2=BT220611.1.4 linecode=60_2 length=0.14637 units=km
New Line.SBT_3222 phases=3 bus1=BT220641.1.2.4 bus2=BT220651.1.2.4 linecode=44_3 length=0.08349 units=km
New Line.SBT_3637 phases=2 bus1=ET4_5069.2.4 bus2=BT220591.2.4 linecode=60_2 length=0.05604 units=km
New Line.SBT_3638 phases=2 bus1=BT220591.2.4 bus2=BT220581.2.4 linecode=60_2 length=0.09127 units=km
New Line.SBT_3649 phases=3 bus1=BT220661.1.2.4 bus2=BT183681.1.2.4 linecode=44_3 length=0.08298 units=km
New Line.SBT_3650 phases=2 bus1=BT183681.1.4 bus2=BT183691.1.4 linecode=60_2 length=0.07273 units=km
New Line.SBT_2908 phases=2 bus1=BT85271.1.4 bus2=BT85281.1.4 linecode=60_2 length=0.16705 units=km
New Line.SBT_2715 phases=3 bus1=BT122541.1.2.4 bus2=BT122551.1.2.4 linecode=44_3 length=0.04579 units=km
New Line.SBT_2722 phases=2 bus1=BT85281.1.4 bus2=BT85291.1.4 linecode=60_2 length=0.06201 units=km
New Line.SBT_2723 phases=2 bus1=BT85291.1.4 bus2=BT85301.1.4 linecode=60_2 length=0.09356 units=km
New Line.SBT_2724 phases=3 bus1=BT85341.1.2.4 bus2=BT85351.1.2.4 linecode=44_3 length=0.06144 units=km
New Line.SBT_4177 phases=2 bus1=BT85341.1.4 bus2=BT85361.1.4 linecode=60_2 length=0.17479 units=km
New Line.SBT_20067 phases=3 bus1=BT85271.1.2.4 bus2=BT122541.1.2.4 linecode=44_3 length=0.09155 units=km
New Line.SBT_20073 phases=3 bus1=BT85321.1.2.4 bus2=BT85331.1.2.4 linecode=44_3 length=0.05867 units=km
New Line.SBT_20074 phases=3 bus1=BT85331.1.2.4 bus2=BT85341.1.2.4 linecode=44_3 length=0.12738 units=km
New Line.SBT_18029 phases=3 bus1=ET4_507.1.2.4 bus2=BT85321.1.2.4 linecode=44_3 length=0.06438 units=km
New Line.SBT_20888 phases=2 bus1=BT85361.1.4 bus2=BT85371.1.4 linecode=60_2 length=0.03158 units=km
New Line.SBT_26090 phases=3 bus1=ET4_507.1.2.4 bus2=BT85271.1.2.4 linecode=44_3 length=0.06044 units=km
New Line.SBT_17616 phases=3 bus1=BT737001.1.2.4 bus2=BT737011.1.2.4 linecode=59_3 length=0.03667 units=km
New Line.SBT_16649 phases=3 bus1=ET4_5095.1.2.4 bus2=BT743651.1.2.4 linecode=44_3 length=0.06335 units=km
New Line.SBT_28467 phases=3 bus1=ET4_5095.1.2.4 bus2=BT737001.1.2.4 linecode=59_3 length=0.06003 units=km
New Line.SBT_3709 phases=4 bus1=ET4_5096.1.2.3.4 bus2=BT332131.1.2.3.4 linecode=97_4 length=0.07004 units=km
New Line.SBT_20062 phases=4 bus1=ET4_5096.1.2.3.4 bus2=BT332151.1.2.3.4 linecode=97_4 length=0.04752 units=km
New Line.SBT_3216 phases=2 bus1=ET4_5097.1.4 bus2=BT143601.1.4 linecode=60_2 length=0.1837 units=km
New Line.SBT_29225 phases=2 bus1=BT749061.1.4 bus2=BT749051.1.4 linecode=60_2 length=0.082 units=km
New Line.SBT_29226 phases=2 bus1=BT749051.1.4 bus2=BT91641.1.4 linecode=60_2 length=0.113 units=km
New Line.SBT_33319 phases=2 bus1=ET4_5448.1.4 bus2=BT749061.1.4 linecode=62_2 length=0.09647 units=km
New Line.SBT_33741 phases=4 bus1=ET4_6070.1.2.3.4 bus2=BT794151.1.2.3.4 linecode=74_4 length=0.04622 units=km
New Line.SBT_33742 phases=4 bus1=ET4_6070.1.2.3.4 bus2=BT794191.1.2.3.4 linecode=74_4 length=0.06045 units=km
New Line.SBT_34137 phases=3 bus1=BT89631.1.2.4 bus2=BT89621.1.2.4 linecode=44_3 length=0.06586 units=km
New Line.SBT_34138 phases=3 bus1=ET4_6178.1.2.4 bus2=BT89631.1.2.4 linecode=44_3 length=0.06002 units=km
New Line.SBT_34139 phases=3 bus1=ET4_6178.1.2.4 bus2=BT118421.1.2.4 linecode=44_3 length=0.039 units=km
New Line.SBT_34776 phases=2 bus1=ET4_6239.1.4 bus2=BT805601.1.4 linecode=62_2 length=0.05048 units=km
New Line.SBT_34777 phases=2 bus1=BT805601.1.4 bus2=BT805611.1.4 linecode=62_2 length=0.04561 units=km
New Line.SBT_36374 phases=4 bus1=BT331321.1.2.3.4 bus2=BT188061.1.2.3.4 linecode=73_4 length=0.04588 units=km
New Line.SBT_36375 phases=4 bus1=BT331321.1.2.3.4 bus2=BT331311.1.2.3.4 linecode=97_4 length=0.05745 units=km
New Line.SBT_36376 phases=4 bus1=ET4_6472.1.2.3.4 bus2=BT331321.1.2.3.4 linecode=73_4 length=0.09643 units=km
New Line.SBT_36378 phases=4 bus1=ET4_6472.1.2.3.4 bus2=BT331341.1.2.3.4 linecode=73_4 length=0.06297 units=km
New Line.SBT_36379 phases=4 bus1=BT331341.1.2.3.4 bus2=BT331352.1.2.3.4 linecode=73_4 length=0.0808 units=km
New Line.SBT_36380 phases=2 bus1=BT331341.1.4 bus2=BT440521.1.4 linecode=62_2 length=0.13119 units=km
New Line.SBT_36381 phases=2 bus1=BT331321.1.4 bus2=BT442021.1.4 linecode=62_2 length=0.07554 units=km
New Line.SBT_36382 phases=2 bus1=BT442021.1.4 bus2=BT442041.1.4 linecode=62_2 length=0.07052 units=km
New Line.SBT_36383 phases=4 bus1=BT331311.1.2.3.4 bus2=BT636152.1.2.3.4 linecode=97_4 length=0.09218 units=km
New Line.SBT_4191 phases=3 bus1=BT144311.1.2.4 bus2=BT144331.1.2.4 linecode=59_3 length=0.09742 units=km
New Line.SBT_4454 phases=3 bus1=BT360831.1.2.4 bus2=BT144311.1.2.4 linecode=59_3 length=0.07016 units=km
New Line.SBT_4455 phases=3 bus1=BT144311.1.2.4 bus2=BT144321.1.2.4 linecode=59_3 length=0.04909 units=km
New Line.SBT_4456 phases=3 bus1=BT144311.1.2.4 bus2=BT144301.1.2.4 linecode=59_3 length=0.07406 units=km
New Line.SBT_4457 phases=3 bus1=BT144351.1.2.4 bus2=BT144361.1.2.4 linecode=59_3 length=0.10218 units=km
New Line.SBT_20893 phases=2 bus1=BT144311.2.4 bus2=BT223731.2.4 linecode=62_2 length=0.17432 units=km
New Line.SBT_20894 phases=3 bus1=BT144281.1.2.4 bus2=BT144291.1.2.4 linecode=59_3 length=0.04123 units=km
New Line.SBT_21045 phases=3 bus1=BT144341.1.2.4 bus2=BT144351.1.2.4 linecode=59_3 length=0.05639 units=km
New Line.SBT_21046 phases=3 bus1=BT144301.1.2.4 bus2=BT144281.1.2.4 linecode=59_3 length=0.09124 units=km
New Line.SBT_10205 phases=3 bus1=ET4_681.1.2.4 bus2=BT360831.1.2.4 linecode=59_3 length=0.06428 units=km
New Line.SBT_13414 phases=3 bus1=ET4_681.1.2.4 bus2=BT144341.1.2.4 linecode=59_3 length=0.02744 units=km
New Line.SBT_4470 phases=3 bus1=ET4_682.1.2.4 bus2=BT84261.1.2.4 linecode=44_3 length=0.08276 units=km
New Line.SBT_4471 phases=3 bus1=ET4_682.1.2.4 bus2=BT84241.1.2.4 linecode=44_3 length=0.07018 units=km
New Line.SBT_4472 phases=3 bus1=BT84241.1.2.4 bus2=BT80671.1.2.4 linecode=44_3 length=0.08628 units=km
New Line.SBT_4136 phases=3 bus1=BT84261.1.2.4 bus2=BT84271.1.2.4 linecode=44_3 length=0.08927 units=km
New Line.SBT_4137 phases=3 bus1=BT80671.1.2.4 bus2=BT80661.1.2.4 linecode=44_3 length=0.09175 units=km
New Line.SBT_4139 phases=3 bus1=ET4_683.1.2.4 bus2=BT143611.1.2.4 linecode=44_3 length=0.08139 units=km
New Line.SBT_4427 phases=3 bus1=BT143641.1.2.4 bus2=BT143631.1.2.4 linecode=44_3 length=0.05886 units=km
New Line.SBT_4428 phases=2 bus1=BT143641.1.4 bus2=BT143661.1.4 linecode=60_2 length=0.08112 units=km
New Line.SBT_3161 phases=2 bus1=BT143561.1.4 bus2=BT143571.1.4 linecode=60_2 length=0.09306 units=km
New Line.SBT_21029 phases=3 bus1=BT143611.1.2.4 bus2=BT143561.1.2.4 linecode=44_3 length=0.09338 units=km
New Line.SBT_20864 phases=3 bus1=ET4_683.1.2.4 bus2=BT143641.1.2.4 linecode=44_3 length=0.08905 units=km
New Line.SBT_20316 phases=2 bus1=BT143661.1.4 bus2=BT143671.1.4 linecode=60_2 length=0.1521 units=km
New Line.SBT_18355 phases=3 bus1=BT143641.1.2.4 bus2=BT143651.1.2.4 linecode=44_3 length=0.15232 units=km
New Line.SBT_21346 phases=2 bus1=BT91571.1.4 bus2=BT91561.1.4 linecode=60_2 length=0.06841 units=km
New Line.SBT_21353 phases=2 bus1=BT91561.1.4 bus2=BT91551.1.4 linecode=60_2 length=0.07035 units=km
New Line.SBT_4986 phases=2 bus1=ET4_955.1.4 bus2=BT91571.1.4 linecode=60_2 length=0.0993 units=km
New Line.SBT_4167 phases=2 bus1=BT82591.1.4 bus2=BT118491.1.4 linecode=60_2 length=0.06407 units=km
New Line.SBT_28988 phases=4 bus1=BT390951.1.2.3.4 bus2=BT146621.1.2.3.4 linecode=97_4 length=0.03245 units=km
New Line.SBT_27047 phases=4 bus1=ET7_1028.1.2.3.4 bus2=BT390901.1.2.3.4 linecode=97_4 length=0.068 units=km
New Line.SBT_27048 phases=2 bus1=BT390951.1.4 bus2=BT146611.1.4 linecode=60_2 length=0.02469 units=km
New Line.SBT_3903 phases=3 bus1=BT146541.1.2.4 bus2=BT146551.1.2.4 linecode=44_3 length=0.05048 units=km
New Line.SBT_3968 phases=4 bus1=BT146541.1.2.3.4 bus2=BT146521.1.2.3.4 linecode=97_4 length=0.06624 units=km
New Line.SBT_3969 phases=4 bus1=BT146521.1.2.3.4 bus2=BT146531.1.2.3.4 linecode=97_4 length=0.0849 units=km
New Line.SBT_34326 phases=2 bus1=BT146531.1.4 bus2=BT799621.1.4 linecode=62_2 length=0.04347 units=km
New Line.SBT_21749 phases=3 bus1=BT146551.1.2.4 bus2=BT146561.1.2.4 linecode=44_3 length=0.06382 units=km
New Line.SBT_20733 phases=4 bus1=ET7_1028.1.2.3.4 bus2=BT146541.1.2.3.4 linecode=97_4 length=0.0688 units=km
New Line.SBT_13051 phases=2 bus1=BT101161.1.4 bus2=BT541501.1.4 linecode=60_2 length=0.01476 units=km
New Line.SBT_15088 phases=4 bus1=BT390901.1.2.3.4 bus2=BT390951.1.2.3.4 linecode=97_4 length=0.04422 units=km
New Line.SBT_5685 phases=2 bus1=BT390951.1.4 bus2=BT101161.1.4 linecode=60_2 length=0.05888 units=km
New Line.SBT_5686 phases=2 bus1=BT541501.1.4 bus2=BT82591.1.4 linecode=60_2 length=0.04763 units=km
New Line.SBT_3987 phases=3 bus1=ET7_1029.1.2.4 bus2=BT118541.1.2.4 linecode=44_3 length=0.10717 units=km
New Line.SBT_4180 phases=2 bus1=BT118541.2.4 bus2=BT118531.2.4 linecode=60_2 length=0.09244 units=km
New Line.SBT_4182 phases=2 bus1=BT118531.2.4 bus2=BT118521.2.4 linecode=60_2 length=0.043 units=km
New Line.SBT_4260 phases=2 bus1=BT98351.1.4 bus2=BT98341.1.4 linecode=60_2 length=0.11037 units=km
New Line.SBT_4261 phases=3 bus1=BT98371.1.2.4 bus2=BT98381.1.2.4 linecode=59_3 length=0.0823 units=km
New Line.SBT_4262 phases=2 bus1=BT565881.1.4 bus2=BT98331.1.4 linecode=60_2 length=0.03606 units=km
New Line.SBT_4263 phases=3 bus1=BT98381.1.2.4 bus2=BT98391.1.2.4 linecode=59_3 length=0.09701 units=km
New Line.SBT_4250 phases=2 bus1=ET7_1047.1.4 bus2=BT98351.1.4 linecode=60_2 length=0.10723 units=km
New Line.SBT_4005 phases=3 bus1=ET7_1047.1.2.4 bus2=BT98371.1.2.4 linecode=59_3 length=0.0801 units=km
New Line.SBT_15053 phases=2 bus1=BT98341.1.4 bus2=BT565881.1.4 linecode=60_2 length=0.04 units=km
New Line.SBT_20935 phases=3 bus1=ET7_1181.1.2.4 bus2=BT198431.1.2.4 linecode=44_3 length=0.16051 units=km
New Line.SBT_20936 phases=2 bus1=BT198441.1.4 bus2=BT163931.1.4 linecode=60_2 length=0.16971 units=km
New Line.SBT_4264 phases=3 bus1=ET7_1181.1.2.4 bus2=BT198441.1.2.4 linecode=44_3 length=0.08621 units=km
New Line.SBT_4265 phases=3 bus1=BT198441.1.2.4 bus2=BT198451.1.2.4 linecode=44_3 length=0.09708 units=km
New Line.SBT_4152 phases=2 bus1=BT198431.1.4 bus2=BT375291.1.4 linecode=60_2 length=0.07976 units=km
New Line.SBT_4153 phases=2 bus1=BT375291.1.4 bus2=BT375301.1.4 linecode=60_2 length=0.11201 units=km
New Line.SBT_4274 phases=2 bus1=ET7_1265.1.4 bus2=BT179731.1.4 linecode=60_2 length=0.11275 units=km
New Line.SBT_20942 phases=3 bus1=ET7_1265.1.2.4 bus2=BT179741.1.2.4 linecode=44_3 length=0.09052 units=km
New Line.SBT_22339 phases=3 bus1=BT179741.1.2.4 bus2=BT180341.1.2.4 linecode=44_3 length=0.11016 units=km
New Line.SBT_22341 phases=2 bus1=BT180341.2.4 bus2=BT425971.2.4 linecode=60_2 length=0.0895 units=km
New Line.SBT_6725 phases=3 bus1=ET7_1265.1.2.4 bus2=BT179701.1.2.4 linecode=44_3 length=0.12022 units=km
New Line.SBT_6728 phases=2 bus1=BT179731.1.4 bus2=BT195541.1.4 linecode=60_2 length=0.18232 units=km
New Line.SBT_6730 phases=2 bus1=BT425971.2.4 bus2=BT425981.2.4 linecode=60_2 length=0.08504 units=km
New Line.SBT_6703 phases=2 bus1=ET7_1319.1.4 bus2=BT180391.1.4 linecode=60_2 length=0.06896 units=km
New Line.SBT_6744 phases=2 bus1=BT180461.2.4 bus2=BT180471.2.4 linecode=60_2 length=0.14989 units=km
New Line.SBT_6759 phases=2 bus1=BT180391.1.4 bus2=BT180361.1.4 linecode=60_2 length=0.10258 units=km
New Line.SBT_22349 phases=2 bus1=ET7_1319.2.4 bus2=BT180461.2.4 linecode=60_2 length=0.08422 units=km
New Line.SBT_22360 phases=2 bus1=BT180361.1.4 bus2=BT180381.1.4 linecode=60_2 length=0.08493 units=km
New Line.SBT_22213 phases=4 bus1=BT417931.1.2.3.4 bus2=BT417941.1.2.3.4 linecode=75_4 length=0.08987 units=km
New Line.SBT_6502 phases=4 bus1=ET7_1364.1.2.3.4 bus2=BT417961.1.2.3.4 linecode=75_4 length=0.13333 units=km
New Line.SBT_6503 phases=4 bus1=ET7_1364.1.2.3.4 bus2=BT417931.1.2.3.4 linecode=75_4 length=0.11114 units=km
New Line.SBT_6504 phases=4 bus1=BT417961.1.2.3.4 bus2=BT417971.1.2.3.4 linecode=75_4 length=0.14462 units=km
New Line.SBT_6505 phases=3 bus1=ET7_1424.1.2.4 bus2=BT206701.1.2.4 linecode=44_3 length=0.09753 units=km
New Line.SBT_6506 phases=2 bus1=ET7_1424.1.4 bus2=BT206681.1.4 linecode=60_2 length=0.07801 units=km
New Line.SBT_6516 phases=3 bus1=ET7_1424.1.2.4 bus2=BT206711.1.2.4 linecode=44_3 length=0.09261 units=km
New Line.SBT_6517 phases=3 bus1=BT206711.1.2.4 bus2=BT206721.1.2.4 linecode=44_3 length=0.06414 units=km
New Line.SBT_6518 phases=2 bus1=BT206701.1.4 bus2=BT364291.1.4 linecode=60_2 length=0.07433 units=km
New Line.SBT_6203 phases=2 bus1=BT188911.2.4 bus2=BT188921.2.4 linecode=60_2 length=0.07379 units=km
New Line.SBT_22218 phases=3 bus1=ET7_1424.1.2.4 bus2=BT188911.1.2.4 linecode=59_3 length=0.11136 units=km
New Line.SBT_33378 phases=3 bus1=BT791251.1.2.4 bus2=BT188932.1.2.4 linecode=59_3 length=0.05118 units=km
New Line.SBT_33380 phases=3 bus1=BT188911.1.2.4 bus2=BT791251.1.2.4 linecode=59_3 length=0.06243 units=km
New Line.SBT_21745 phases=3 bus1=BT86961.1.2.4 bus2=BT86971.1.2.4 linecode=44_3 length=0.07214 units=km
New Line.SBT_5680 phases=3 bus1=BT86951.1.2.4 bus2=BT86961.1.2.4 linecode=44_3 length=0.08062 units=km
New Line.SBT_5681 phases=3 bus1=BT86971.1.2.4 bus2=BT86981.1.2.4 linecode=44_3 length=0.05991 units=km
New Line.SBT_5722 phases=3 bus1=BT86941.1.2.4 bus2=BT86951.1.2.4 linecode=44_3 length=0.0492 units=km
New Line.SBT_5723 phases=3 bus1=ET7_1661.1.2.4 bus2=BT86941.1.2.4 linecode=44_3 length=0.12587 units=km
New Line.SBT_29355 phases=3 bus1=ET7_1727.1.2.4 bus2=BT98221.1.2.4 linecode=88_3 length=0.07879 units=km
New Line.SBT_4870 phases=3 bus1=BT98221.1.2.4 bus2=BT98211.1.2.4 linecode=44_3 length=0.1317 units=km
New Line.SBT_4900 phases=3 bus1=BT156851.1.2.4 bus2=BT156871.1.2.4 linecode=44_3 length=0.0349 units=km
New Line.SBT_5167 phases=3 bus1=ET7_1817.1.2.4 bus2=BT156151.1.2.4 linecode=44_3 length=0.07622 units=km
New Line.SBT_5168 phases=3 bus1=ET7_1817.1.2.4 bus2=BT170911.1.2.4 linecode=44_3 length=0.11122 units=km
New Line.SBT_21296 phases=2 bus1=BT156851.2.4 bus2=BT156861.2.4 linecode=60_2 length=0.04253 units=km
New Line.SBT_21454 phases=3 bus1=BT156151.1.2.4 bus2=BT156851.1.2.4 linecode=44_3 length=0.04135 units=km
New Line.SBT_13220 phases=3 bus1=ET7_1827.1.2.4 bus2=BT102141.1.2.4 linecode=84_3 length=0.07923 units=km