New Line.RBT_2519178 phases=2 bus1=BT343122.1.4 bus2=UC2519178.1.4 linecode=50_2 length=0.01234 units=km
New Line.RBT_2533903 phases=2 bus1=BT343122.1.4 bus2=UC2533903.1.4 linecode=50_2 length=0.01486 units=km
New Line.RBT_2534183 phases=4 bus1=ET25_4122.1.2.3.4 bus2=UC2534183.1.2.3.4 linecode=51_4 length=0.01 units=km
New Line.RBT_2531956 phases=2 bus1=ET25_4721.1.4 bus2=UC2531956.1.4 linecode=50_2 length=0.00819 units=km
New Line.RBT_2538561 phases=2 bus1=ET25_6378.1.4 bus2=UC2538561.1.4 linecode=105_2 length=0.016 units=km
New Line.RBT_413703 phases=2 bus1=BT345791.3.4 bus2=UC413703.3.4 linecode=50_2 length=0.021 units=km
New Line.RBT_413704 phases=2 bus1=BT345781.2.4 bus2=UC413704.2.4 linecode=50_2 length=0.002 units=km
New Line.RBT_413706 phases=4 bus1=BT184711.1.2.3.4 bus2=UC413706.1.2.3.4 linecode=51_4 length=0.00529 units=km
New Line.RBT_433523 phases=2 bus1=BT345781.1.4 bus2=UC433523.1.4 linecode=50_2 length=0.02472 units=km
New Line.RBT_438409 phases=2 bus1=BT184721.2.4 bus2=UC438409.2.4 linecode=105_2 length=0.019 units=km
New Line.RBT_433444 phases=2 bus1=BT103651.2.4 bus2=UC433444.2.4 linecode=50_2 length=0.01605 units=km
New Line.RBT_413634 phases=2 bus1=BT103681.2.4 bus2=UC413634.2.4 linecode=108_2 length=0.00951 units=km
New Line.RBT_413635 phases=3 bus1=BT706511.1.2.4 bus2=UC413635.1.2.4 linecode=83_3 length=0.03 units=km
New Line.RBT_413636 phases=2 bus1=BT86191.1.4 bus2=UC413636.1.4 linecode=50_2 length=0.03 units=km
New Line.RBT_413637 phases=2 bus1=BT86201.2.4 bus2=UC413637.2.4 linecode=50_2 length=0.00517 units=km
New Line.RBT_418866 phases=2 bus1=BT103661.1.4 bus2=UC418866.1.4 linecode=105_2 length=0.006 units=km
New Line.RBT_422332 phases=2 bus1=BT610291.2.4 bus2=UC422332.2.4 linecode=50_2 length=0.03 units=km
New Line.RBT_422391 phases=2 bus1=BT86271.2.4 bus2=UC422391.2.4 linecode=50_2 length=0.02005 units=km
New Line.RBT_411462 phases=2 bus1=BT122481.2.4 bus2=UC411462.2.4 linecode=105_2 length=0.005 units=km
New Line.RBT_413619 phases=2 bus1=BT122481.2.4 bus2=UC413619.2.4 linecode=50_2 length=0.00665 units=km
New Line.RBT_413628 phases=2 bus1=BT86211.1.4 bus2=UC413628.1.4 linecode=105_2 length=0.024 units=km
New Line.RBT_413630 phases=2 bus1=BT86291.1.4 bus2=UC413630.1.4 linecode=50_2 length=0.00661 units=km
New Line.RBT_433666 phases=2 bus1=BT122481.2.4 bus2=UC433666.2.4 linecode=50_2 length=0.01778 units=km
New Line.RBT_437385 phases=2 bus1=ET4_1296.2.4 bus2=UC437385.2.4 linecode=105_2 length=0.03 units=km
New Line.RBT_413722 phases=2 bus1=BT331151.1.4 bus2=UC413722.1.4 linecode=108_2 length=0.018 units=km
New Line.RBT_413723 phases=4 bus1=BT331141.1.2.3.4 bus2=UC413723.1.2.3.4 linecode=51_4 length=0.024 units=km
New Line.RBT_413724 phases=2 bus1=BT331141.1.4 bus2=UC413724.1.4 linecode=108_2 length=0.03 units=km
New Line.RBT_413725 phases=2 bus1=BT331261.2.4 bus2=UC413725.2.4 linecode=50_2 length=0.0146 units=km
New Line.RBT_413726 phases=2 bus1=BT331141.3.4 bus2=UC413726.3.4 linecode=50_2 length=0.007 units=km
New Line.RBT_413727 phases=2 bus1=BT331141.1.4 bus2=UC413727.1.4 linecode=50_2 length=0.021 units=km
New Line.RBT_413728 phases=4 bus1=BT331151.1.2.3.4 bus2=UC413728.1.2.3.4 linecode=51_4 length=0.013 units=km
New Line.RBT_413729 phases=2 bus1=BT331161.1.4 bus2=UC413729.1.4 linecode=108_2 length=0.01 units=km
New Line.RBT_413730 phases=2 bus1=BT331161.2.4 bus2=UC413730.2.4 linecode=50_2 length=0.01682 units=km
New Line.RBT_413731 phases=2 bus1=BT331151.1.4 bus2=UC413731.1.4 linecode=50_2 length=0.019 units=km
New Line.RBT_419516 phases=4 bus1=BT331172.1.2.3.4 bus2=UC419516.1.2.3.4 linecode=109_4 length=0.007 units=km
New Line.RBT_413718 phases=4 bus1=BT331141.1.2.3.4 bus2=UC413718.1.2.3.4 linecode=109_4 length=0.027 units=km
New Line.RBT_426353 phases=4 bus1=ET4_1399.1.2.3.4 bus2=UC426353.1.2.3.4 linecode=109_4 length=0.00166 units=km
New Line.RBT_432827 phases=2 bus1=BT243351.1.4 bus2=UC432827.1.4 linecode=108_2 length=0.01265 units=km
New Line.RBT_413710 phases=2 bus1=BT440511.2.4 bus2=UC413710.2.4 linecode=108_2 length=0.012 units=km
New Line.RBT_413647 phases=2 bus1=BT771321.2.4 bus2=UC413647.2.4 linecode=50_2 length=0.03 units=km
New Line.RBT_434684 phases=2 bus1=ET4_1446.2.4 bus2=UC434684.2.4 linecode=105_2 length=0.02985 units=km
New Line.RBT_413651 phases=3 bus1=ET4_1447.1.2.4 bus2=UC413651.1.2.4 linecode=83_3 length=0.01969 units=km
New Line.RBT_413642 phases=2 bus1=ET4_1448.2.4 bus2=UC413642.2.4 linecode=108_2 length=0.02845 units=km
New Line.RBT_417100 phases=2 bus1=ET4_1694.1.4 bus2=UC417100.1.4 linecode=50_2 length=0.02229 units=km
New Line.RBT_413778 phases=2 bus1=BT345741.3.4 bus2=UC413778.3.4 linecode=50_2 length=0.016 units=km
New Line.RBT_413775 phases=4 bus1=BT345691.1.2.3.4 bus2=UC413775.1.2.3.4 linecode=51_4 length=0.015 units=km
New Line.RBT_423284 phases=2 bus1=BT345691.3.4 bus2=UC423284.3.4 linecode=50_2 length=0.012 units=km
New Line.RBT_2529387 phases=2 bus1=BT345751.2.4 bus2=UC2529387.2.4 linecode=108_2 length=0.004 units=km
New Line.RBT_413643 phases=3 bus1=ET4_1826.1.2.4 bus2=UC413643.1.2.4 linecode=83_3 length=0.01327 units=km
New Line.RBT_423832 phases=2 bus1=BT118481.1.4 bus2=UC423832.1.4 linecode=50_2 length=0.02124 units=km
New Line.RBT_401322 phases=3 bus1=ET4_2047.1.2.4 bus2=UC401322.1.2.4 linecode=83_3 length=0.00886 units=km
New Line.RBT_419791 phases=3 bus1=ET4_2444.1.2.4 bus2=UC419791.1.2.4 linecode=83_3 length=0.01 units=km
New Line.RBT_423836 phases=3 bus1=ET4_2445.1.2.4 bus2=UC423836.1.2.4 linecode=83_3 length=0.02117 units=km
New Line.RBT_419895 phases=3 bus1=ET4_2635.1.2.4 bus2=UC419895.1.2.4 linecode=83_3 length=0.01775 units=km
New Line.RBT_422125 phases=2 bus1=BT539701.2.4 bus2=UC422125.2.4 linecode=50_2 length=0.027 units=km
New Line.RBT_417714 phases=4 bus1=BT808541.1.2.3.4 bus2=UC417714.1.2.3.4 linecode=51_4 length=0.01 units=km
New Line.RBT_418817 phases=2 bus1=BT539691.3.4 bus2=UC418817.3.4 linecode=50_2 length=0.03 units=km
New Line.RBT_422747 phases=2 bus1=BT620071.1.4 bus2=UC422747.1.4 linecode=50_2 length=0.013 units=km
New Line.RBT_422859 phases=2 bus1=BT620101.2.4 bus2=UC422859.2.4 linecode=50_2 length=0.006 units=km
New Line.RBT_422386 phases=2 bus1=BT620061.1.4 bus2=UC422386.1.4 linecode=50_2 length=0.004 units=km
New Line.RBT_423280 phases=2 bus1=BT539701.1.4 bus2=UC423280.1.4 linecode=50_2 length=0.012 units=km
New Line.RBT_423281 phases=2 bus1=BT539701.1.4 bus2=UC423281.1.4 linecode=108_2 length=0.011 units=km
New Line.RBT_424130 phases=2 bus1=BT539671.2.4 bus2=UC424130.2.4 linecode=108_2 length=0.002 units=km
New Line.RBT_424660 phases=2 bus1=BT620071.2.4 bus2=UC424660.2.4 linecode=50_2 length=0.009 units=km
New Line.RBT_426402 phases=2 bus1=BT539671.2.4 bus2=UC426402.2.4 linecode=50_2 length=0.018 units=km
New Line.RBT_425019 phases=2 bus1=BT620101.1.4 bus2=UC425019.1.4 linecode=108_2 length=0.024 units=km
New Line.RBT_425215 phases=2 bus1=BT620071.3.4 bus2=UC425215.3.4 linecode=108_2 length=0.017 units=km
New Line.RBT_432135 phases=2 bus1=BT620071.1.4 bus2=UC432135.1.4 linecode=105_2 length=0.022 units=km
New Line.RBT_430662 phases=2 bus1=BT620071.2.4 bus2=UC430662.2.4 linecode=50_2 length=0.02 units=km
New Line.RBT_429478 phases=2 bus1=BT539691.3.4 bus2=UC429478.3.4 linecode=50_2 length=0.024 units=km
New Line.RBT_429832 phases=2 bus1=BT794121.1.4 bus2=UC429832.1.4 linecode=50_2 length=0.027 units=km
New Line.RBT_400772 phases=2 bus1=BT539681.3.4 bus2=UC400772.3.4 linecode=50_2 length=0.008 units=km
New Line.RBT_413760 phases=2 bus1=BT331171.1.4 bus2=UC413760.1.4 linecode=50_2 length=0.018 units=km
New Line.RBT_413761 phases=2 bus1=BT331181.2.4 bus2=UC413761.2.4 linecode=105_2 length=0.02 units=km
New Line.RBT_413762 phases=4 bus1=BT331181.1.2.3.4 bus2=UC413762.1.2.3.4 linecode=51_4 length=0.022 units=km
New Line.RBT_413763 phases=2 bus1=BT331211.2.4 bus2=UC413763.2.4 linecode=50_2 length=0.019 units=km
New Line.RBT_413764 phases=2 bus1=BT331201.2.4 bus2=UC413764.2.4 linecode=108_2 length=0.025 units=km
New Line.RBT_413765 phases=2 bus1=BT539651.1.4 bus2=UC413765.1.4 linecode=108_2 length=0.014 units=km
New Line.RBT_413766 phases=2 bus1=BT539651.2.4 bus2=UC413766.2.4 linecode=50_2 length=0.012 units=km
New Line.RBT_413767 phases=2 bus1=BT659671.1.4 bus2=UC413767.1.4 linecode=50_2 length=0.006 units=km
New Line.RBT_413768 phases=2 bus1=BT659671.1.4 bus2=UC413768.1.4 linecode=50_2 length=0.024 units=km
New Line.RBT_413769 phases=2 bus1=BT349131.1.4 bus2=UC413769.1.4 linecode=50_2 length=0.009 units=km
New Line.RBT_413770 phases=2 bus1=BT539671.1.4 bus2=UC413770.1.4 linecode=108_2 length=0.002 units=km
New Line.RBT_413771 phases=2 bus1=BT539691.3.4 bus2=UC413771.3.4 linecode=50_2 length=0.025 units=km
New Line.RBT_436464 phases=2 bus1=BT620091.2.4 bus2=UC436464.2.4 linecode=104_2 length=0.01 units=km
New Line.RBT_438411 phases=4 bus1=BT539681.1.2.3.4 bus2=UC438411.1.2.3.4 linecode=51_4 length=0.015 units=km
New Line.RBT_434187 phases=2 bus1=BT808541.2.4 bus2=UC434187.2.4 linecode=105_2 length=0.015 units=km
New Line.RBT_438831 phases=2 bus1=BT331181.2.4 bus2=UC438831.2.4 linecode=105_2 length=0.005 units=km
New Line.RBT_438867 phases=2 bus1=BT620091.2.4 bus2=UC438867.2.4 linecode=105_2 length=0.01 units=km
New Line.RBT_439072 phases=2 bus1=BT808541.3.4 bus2=UC439072.3.4 linecode=105_2 length=0.018 units=km
New Line.RBT_433255 phases=2 bus1=BT539691.2.4 bus2=UC433255.2.4 linecode=105_2 length=0.015 units=km
New Line.RBT_433084 phases=2 bus1=BT331211.2.4 bus2=UC433084.2.4 linecode=105_2 length=0.03 units=km
New Line.RBT_433089 phases=2 bus1=BT539671.2.4 bus2=UC433089.2.4 linecode=50_2 length=0.0258 units=km
New Line.RBT_436176 phases=3 bus1=ET4_2733.1.2.4 bus2=UC436176.1.2.4 linecode=83_3 length=0.013 units=km
New Line.RBT_424704 phases=2 bus1=BT312861.1.4 bus2=UC424704.1.4 linecode=50_2 length=0.01238 units=km
New Line.RBT_413776 phases=4 bus1=ET4_2978.1.2.3.4 bus2=UC413776.1.2.3.4 linecode=51_4 length=0.01014 units=km
New Line.RBT_419851 phases=3 bus1=BT612121.1.2.4 bus2=UC419851.1.2.4 linecode=83_3 length=0.0126 units=km
New Line.RBT_425206 phases=2 bus1=BT147361.2.4 bus2=UC425206.2.4 linecode=50_2 length=0.0121 units=km
New Line.RBT_432396 phases=2 bus1=ET4_3135.1.4 bus2=UC432396.1.4 linecode=50_2 length=0.0157 units=km
New Line.RBT_413640 phases=2 bus1=BT147371.1.4 bus2=UC413640.1.4 linecode=50_2 length=0.00842 units=km
New Line.RBT_423195 phases=2 bus1=BT147371.2.4 bus2=UC423195.2.4 linecode=50_2 length=0.02643 units=km
New Line.RBT_425841 phases=3 bus1=BT630331.1.2.4 bus2=UC425841.1.2.4 linecode=83_3 length=0.008 units=km
New Line.RBT_427839 phases=2 bus1=BT635801.1.4 bus2=UC427839.1.4 linecode=50_2 length=0.01176 units=km
New Line.RBT_424532 phases=2 bus1=BT630331.1.4 bus2=UC424532.1.4 linecode=50_2 length=0.0279 units=km
New Line.RBT_423334 phases=2 bus1=ET4_3212.1.4 bus2=UC423334.1.4 linecode=50_2 length=0.02085 units=km
New Line.RBT_423078 phases=2 bus1=BT118441.1.4 bus2=UC423078.1.4 linecode=50_2 length=0.00889 units=km
New Line.RBT_439107 phases=2 bus1=ET4_3212.1.4 bus2=UC439107.1.4 linecode=105_2 length=0.03 units=km
New Line.RBT_423092 phases=2 bus1=ET4_3313.1.4 bus2=UC423092.1.4 linecode=50_2 length=0.00728 units=km
New Line.RBT_425519 phases=2 bus1=ET4_3487.1.4 bus2=UC425519.1.4 linecode=50_2 length=0.00891 units=km
New Line.RBT_430317 phases=2 bus1=ET4_3487.1.4 bus2=UC430317.1.4 linecode=50_2 length=0.03 units=km
New Line.RBT_431468 phases=2 bus1=ET4_3492.1.4 bus2=UC431468.1.4 linecode=50_2 length=0.00751 units=km
New Line.RBT_426439 phases=2 bus1=ET4_3492.1.4 bus2=UC426439.1.4 linecode=50_2 length=0.01122 units=km
New Line.RBT_437425 phases=2 bus1=ET4_3492.1.4 bus2=UC437425.1.4 linecode=105_2 length=0.011 units=km
New Line.RBT_435135 phases=2 bus1=BT750051.1.4 bus2=UC435135.1.4 linecode=105_2 length=0.015 units=km
New Line.RBT_434689 phases=2 bus1=BT561161.3.4 bus2=UC434689.3.4 linecode=108_2 length=0.01186 units=km
New Line.RBT_413719 phases=2 bus1=BT561151.1.4 bus2=UC413719.1.4 linecode=108_2 length=0.014 units=km
New Line.RBT_413720 phases=4 bus1=BT561151.1.2.3.4 bus2=UC413720.1.2.3.4 linecode=51_4 length=0.03 units=km
New Line.RBT_413713 phases=2 bus1=BT561121.1.4 bus2=UC413713.1.4 linecode=50_2 length=0.02 units=km
New Line.RBT_413714 phases=4 bus1=BT561141.1.2.3.4 bus2=UC413714.1.2.3.4 linecode=51_4 length=0.022 units=km
New Line.RBT_413716 phases=4 bus1=BT561141.1.2.3.4 bus2=UC413716.1.2.3.4 linecode=51_4 length=0.025 units=km
New Line.RBT_411478 phases=3 bus1=BT364851.1.2.4 bus2=UC411478.1.2.4 linecode=83_3 length=0.0188 units=km
New Line.RBT_413605 phases=2 bus1=BT90801.2.4 bus2=UC413605.2.4 linecode=50_2 length=0.01404 units=km
New Line.RBT_413615 phases=2 bus1=BT118341.1.4 bus2=UC413615.1.4 linecode=50_2 length=0.01288 units=km
New Line.RBT_413616 phases=2 bus1=ET4_3967.1.4 bus2=UC413616.1.4 linecode=50_2 length=0.02599 units=km
New Line.RBT_413641 phases=2 bus1=BT197751.1.4 bus2=UC413641.1.4 linecode=50_2 length=0.02333 units=km
New Line.RBT_413621 phases=3 bus1=ET4_4055.1.2.4 bus2=UC413621.1.2.4 linecode=83_3 length=0.018 units=km
New Line.RBT_426452 phases=2 bus1=BT118401.1.4 bus2=UC426452.1.4 linecode=50_2 length=0.02567 units=km
New Line.RBT_434110 phases=3 bus1=ET4_4055.1.2.4 bus2=UC434110.1.2.4 linecode=83_3 length=0.02991 units=km
New Line.RBT_437223 phases=4 bus1=ET4_4115.1.2.3.4 bus2=UC437223.1.2.3.4 linecode=51_4 length=0.015 units=km
New Line.RBT_413785 phases=2 bus1=ET4_4115.2.4 bus2=UC413785.2.4 linecode=108_2 length=0.03 units=km
New Line.RBT_413701 phases=4 bus1=BT345831.1.2.3.4 bus2=UC413701.1.2.3.4 linecode=51_4 length=0.026 units=km
New Line.RBT_413702 phases=2 bus1=ET4_4115.2.4 bus2=UC413702.2.4 linecode=108_2 length=0.01344 units=km
New Line.RBT_2530919 phases=2 bus1=BT254971.2.4 bus2=UC2530919.2.4 linecode=105_2 length=0.013 units=km
New Line.RBT_2530920 phases=2 bus1=BT666791.1.4 bus2=UC2530920.1.4 linecode=50_2 length=0.00963 units=km
New Line.RBT_431559 phases=2 bus1=BT166241.3.4 bus2=UC431559.3.4 linecode=105_2 length=0.015 units=km
New Line.RBT_432749 phases=2 bus1=ET4_4392.2.4 bus2=UC432749.2.4 linecode=50_2 length=0.00777 units=km
New Line.RBT_433082 phases=2 bus1=BT166241.1.4 bus2=UC433082.1.4 linecode=50_2 length=0.01528 units=km
New Line.RBT_429591 phases=2 bus1=ET4_4392.1.4 bus2=UC429591.1.4 linecode=50_2 length=0.02632 units=km
New Line.RBT_436180 phases=2 bus1=BT180731.1.4 bus2=UC436180.1.4 linecode=108_2 length=0.013 units=km
New Line.RBT_435421 phases=2 bus1=BT180731.3.4 bus2=UC435421.3.4 linecode=50_2 length=0.012 units=km
New Line.RBT_433357 phases=4 bus1=BT254971.1.2.3.4 bus2=UC433357.1.2.3.4 linecode=51_4 length=0.01522 units=km
New Line.RBT_433567 phases=2 bus1=BT166241.2.4 bus2=UC433567.2.4 linecode=50_2 length=0.01383 units=km
New Line.RBT_424657 phases=2 bus1=BT63051.1.4 bus2=UC424657.1.4 linecode=50_2 length=0.00946 units=km
New Line.RBT_417214 phases=2 bus1=ET4_5018.1.4 bus2=UC417214.1.4 linecode=50_2 length=0.02715 units=km
New Line.RBT_411464 phases=3 bus1=BT85261.1.2.4 bus2=UC411464.1.2.4 linecode=83_3 length=0.00689 units=km
New Line.RBT_413622 phases=3 bus1=BT122641.1.2.4 bus2=UC413622.1.2.4 linecode=83_3 length=0.01487 units=km
New Line.RBT_413623 phases=3 bus1=BT122621.1.2.4 bus2=UC413623.1.2.4 linecode=83_3 length=0.00231 units=km
New Line.RBT_2537590 phases=4 bus1=ET4_506.1.2.3.4 bus2=UC2537590.1.2.3.4 linecode=51_4 length=0.027 units=km
New Line.RBT_428064 phases=4 bus1=BT122621.1.2.3.4 bus2=UC428064.1.2.3.4 linecode=51_4 length=0.012 units=km
New Line.RBT_413618 phases=2 bus1=ET4_5065.1.4 bus2=UC413618.1.4 linecode=50_2 length=0.00668 units=km
New Line.RBT_816405 phases=2 bus1=BT220621.1.4 bus2=UC816405.1.4 linecode=50_2 length=0.00655 units=km
New Line.RBT_816406 phases=2 bus1=BT220571.2.4 bus2=UC816406.2.4 linecode=105_2 length=0.025 units=km
New Line.RBT_816507 phases=2 bus1=BT220591.2.4 bus2=UC816507.2.4 linecode=50_2 length=0.01169 units=km
New Line.RBT_833378 phases=2 bus1=BT313621.1.4 bus2=UC833378.1.4 linecode=105_2 length=0.015 units=km
New Line.RBT_425911 phases=3 bus1=BT85271.1.2.4 bus2=UC425911.1.2.4 linecode=83_3 length=0.02039 units=km
New Line.RBT_424983 phases=2 bus1=BT85371.1.4 bus2=UC424983.1.4 linecode=50_2 length=0.02849 units=km
New Line.RBT_413625 phases=2 bus1=BT122551.2.4 bus2=UC413625.2.4 linecode=50_2 length=0.01413 units=km
New Line.RBT_413626 phases=2 bus1=BT85271.2.4 bus2=UC413626.2.4 linecode=50_2 length=0.02295 units=km
New Line.RBT_411468 phases=2 bus1=BT85371.1.4 bus2=UC411468.1.4 linecode=50_2 length=0.01695 units=km
New Line.RBT_413617 phases=2 bus1=BT85301.1.4 bus2=UC413617.1.4 linecode=50_2 length=0.02662 units=km
New Line.RBT_413631 phases=2 bus1=ET4_5095.2.4 bus2=UC413631.2.4 linecode=50_2 length=0.02189 units=km
New Line.RBT_413632 phases=2 bus1=BT743651.1.4 bus2=UC413632.1.4 linecode=50_2 length=0.01691 units=km
New Line.RBT_413796 phases=2 bus1=BT737011.1.4 bus2=UC413796.1.4 linecode=105_2 length=0.02 units=km
New Line.RBT_413711 phases=2 bus1=BT332151.1.4 bus2=UC413711.1.4 linecode=50_2 length=0.018 units=km
New Line.RBT_413712 phases=4 bus1=BT332131.1.2.3.4 bus2=UC413712.1.2.3.4 linecode=51_4 length=0.01 units=km
New Line.RBT_427185 phases=4 bus1=BT332151.1.2.3.4 bus2=UC427185.1.2.3.4 linecode=109_4 length=0.006 units=km
New Line.RBT_413708 phases=4 bus1=ET4_5096.1.2.3.4 bus2=UC413708.1.2.3.4 linecode=51_4 length=0.015 units=km
New Line.RBT_433252 phases=3 bus1=BT332151.1.2.4 bus2=UC433252.1.2.4 linecode=110_3 length=0.02972 units=km
New Line.RBT_816475 phases=2 bus1=BT143601.1.4 bus2=UC816475.1.4 linecode=50_2 length=0.0155 units=km
New Line.RBT_816476 phases=3 bus1=ET4_5097.1.2.4 bus2=UC816476.1.2.4 linecode=83_3 length=0.01837 units=km
New Line.RBT_400774 phases=2 bus1=ET4_5371.2.4 bus2=UC400774.2.4 linecode=50_2 length=0.00651 units=km
New Line.RBT_435539 phases=4 bus1=ET4_5417.1.2.3.4 bus2=UC435539.1.2.3.4 linecode=51_4 length=0.03 units=km
New Line.RBT_435664 phases=2 bus1=ET4_5655.1.4 bus2=UC435664.1.4 linecode=108_2 length=0.011 units=km
New Line.RBT_435778 phases=2 bus1=ET4_5678.1.4 bus2=UC435778.1.4 linecode=108_2 length=0.01 units=km
New Line.RBT_436396 phases=4 bus1=ET4_5836.1.2.3.4 bus2=UC436396.1.2.3.4 linecode=51_4 length=0.007 units=km
New Line.RBT_437230 phases=4 bus1=BT794151.1.2.3.4 bus2=UC437230.1.2.3.4 linecode=51_4 length=0.005 units=km
New Line.RBT_437861 phases=4 bus1=ET4_6178.1.2.3.4 bus2=UC437861.1.2.3.4 linecode=51_4 length=0.03 units=km
New Line.RBT_437725 phases=2 bus1=ET4_6196.1.4 bus2=UC437725.1.4 linecode=105_2 length=0.03 units=km
New Line.RBT_434842 phases=2 bus1=ET4_6239.1.4 bus2=UC434842.1.4 linecode=105_2 length=0.021 units=km
New Line.RBT_411454 phases=2 bus1=ET4_6239.1.4 bus2=UC411454.1.4 linecode=50_2 length=0.03 units=km
New Line.RBT_438488 phases=4 bus1=ET4_6388.1.2.3.4 bus2=UC438488.1.2.3.4 linecode=51_4 length=0.005 units=km
New Line.RBT_401205 phases=2 bus1=ET4_6472.3.4 bus2=UC401205.3.4 linecode=50_2 length=0.024 units=km
New Line.RBT_413772 phases=2 bus1=ET4_6472.3.4 bus2=UC413772.3.4 linecode=50_2 length=0.014 units=km
New Line.RBT_413773 phases=2 bus1=BT188061.3.4 bus2=UC413773.3.4 linecode=50_2 length=0.013 units=km
New Line.RBT_413732 phases=2 bus1=BT442041.1.4 bus2=UC413732.1.4 linecode=50_2 length=0.009 units=km
New Line.RBT_413733 phases=2 bus1=BT440521.1.4 bus2=UC413733.1.4 linecode=105_2 length=0.009 units=km
New Line.RBT_413782 phases=4 bus1=BT636152.1.2.3.4 bus2=UC413782.1.2.3.4 linecode=51_4 length=0.018 units=km
New Line.RBT_433159 phases=2 bus1=BT144341.2.4 bus2=UC433159.2.4 linecode=50_2 length=0.01478 units=km
New Line.RBT_816481 phases=3 bus1=BT144291.1.2.4 bus2=UC816481.1.2.4 linecode=83_3 length=0.01012 units=km
New Line.RBT_816482 phases=2 bus1=BT144321.2.4 bus2=UC816482.2.4 linecode=108_2 length=0.01056 units=km
New Line.RBT_816485 phases=2 bus1=BT144351.1.4 bus2=UC816485.1.4 linecode=50_2 length=0.00951 units=km
New Line.RBT_816608 phases=3 bus1=BT144331.1.2.4 bus2=UC816608.1.2.4 linecode=83_3 length=0.01902 units=km
New Line.RBT_816634 phases=2 bus1=BT223731.2.4 bus2=UC816634.2.4 linecode=50_2 length=0.01586 units=km
New Line.RBT_816473 phases=3 bus1=BT84271.1.2.4 bus2=UC816473.1.2.4 linecode=83_3 length=0.0161 units=km
New Line.RBT_816474 phases=3 bus1=ET4_682.1.2.4 bus2=UC816474.1.2.4 linecode=83_3 length=0.01049 units=km
New Line.RBT_816479 phases=3 bus1=BT143631.1.2.4 bus2=UC816479.1.2.4 linecode=83_3 length=0.0069 units=km
New Line.RBT_834345 phases=3 bus1=ET4_683.1.2.4 bus2=UC834345.1.2.4 linecode=110_3 length=0.025 units=km
New Line.RBT_417207 phases=2 bus1=BT91551.1.4 bus2=UC417207.1.4 linecode=50_2 length=0.01009 units=km
New Line.RBT_411463 phases=2 bus1=BT146521.2.4 bus2=UC411463.2.4 linecode=50_2 length=0.03 units=km
New Line.RBT_711238 phases=2 bus1=BT146561.2.4 bus2=UC711238.2.4 linecode=105_2 length=0.014 units=km
New Line.RBT_711239 phases=2 bus1=ET7_1028.2.4 bus2=UC711239.2.4 linecode=50_2 length=0.01734 units=km
New Line.RBT_711240 phases=2 bus1=BT146621.2.4 bus2=UC711240.2.4 linecode=108_2 length=0.00719 units=km
New Line.RBT_711241 phases=2 bus1=BT146531.1.4 bus2=UC711241.1.4 linecode=108_2 length=0.03 units=km
New Line.RBT_711233 phases=2 bus1=BT118491.1.4 bus2=UC711233.1.4 linecode=50_2 length=0.01987 units=km
New Line.RBT_737390 phases=2 bus1=BT146561.2.4 bus2=UC737390.2.4 linecode=105_2 length=0.005 units=km
New Line.RBT_737820 phases=2 bus1=BT799621.1.4 bus2=UC737820.1.4 linecode=105_2 length=0.03 units=km
New Line.RBT_711234 phases=2 bus1=BT118541.1.4 bus2=UC711234.1.4 linecode=50_2 length=0.01124 units=km
New Line.RBT_725384 phases=2 bus1=BT118531.2.4 bus2=UC725384.2.4 linecode=50_2 length=0.00512 units=km
New Line.RBT_711219 phases=3 bus1=BT98391.1.2.4 bus2=UC711219.1.2.4 linecode=83_3 length=0.03 units=km
New Line.RBT_728004 phases=2 bus1=BT198431.2.4 bus2=UC728004.2.4 linecode=50_2 length=0.015 units=km
New Line.RBT_710962 phases=2 bus1=BT375291.1.4 bus2=UC710962.1.4 linecode=50_2 length=0.017 units=km
New Line.RBT_710963 phases=2 bus1=BT198451.1.4 bus2=UC710963.1.4 linecode=108_2 length=0.006 units=km
New Line.RBT_711255 phases=2 bus1=BT180341.2.4 bus2=UC711255.2.4 linecode=108_2 length=0.03 units=km
New Line.RBT_711256 phases=2 bus1=BT195541.1.4 bus2=UC711256.1.4 linecode=50_2 length=0.01658 units=km
New Line.RBT_711259 phases=2 bus1=BT180471.2.4 bus2=UC711259.2.4 linecode=108_2 length=0.005 units=km
New Line.RBT_719325 phases=2 bus1=BT180361.1.4 bus2=UC719325.1.4 linecode=50_2 length=0.01924 units=km
New Line.RBT_733072 phases=2 bus1=BT180361.1.4 bus2=UC733072.1.4 linecode=50_2 length=0.01302 units=km
New Line.RBT_733322 phases=4 bus1=BT417971.1.2.3.4 bus2=UC733322.1.2.3.4 linecode=51_4 length=0.02579 units=km
New Line.RBT_722855 phases=4 bus1=ET7_1364.1.2.3.4 bus2=UC722855.1.2.3.4 linecode=51_4 length=0.02955 units=km
New Line.RBT_711034 phases=4 bus1=ET7_1364.1.2.3.4 bus2=UC711034.1.2.3.4 linecode=51_4 length=0.01288 units=km
New Line.RBT_721528 phases=2 bus1=BT206681.1.4 bus2=UC721528.1.4 linecode=50_2 length=0.01085 units=km
New Line.RBT_727996 phases=2 bus1=BT206721.1.4 bus2=UC727996.1.4 linecode=108_2 length=0.00405 units=km
New Line.RBT_731060 phases=2 bus1=BT188911.1.4 bus2=UC731060.1.4 linecode=50_2 length=0.02816 units=km
New Line.RBT_710652 phases=2 bus1=BT188921.2.4 bus2=UC710652.2.4 linecode=50_2 length=0.02399 units=km
New Line.RBT_710655 phases=2 bus1=BT206701.2.4 bus2=UC710655.2.4 linecode=105_2 length=0.017 units=km
New Line.RBT_711213 phases=3 bus1=ET7_1661.1.2.4 bus2=UC711213.1.2.4 linecode=83_3 length=0.01951 units=km
New Line.RBT_711215 phases=2 bus1=BT86971.2.4 bus2=UC711215.2.4 linecode=108_2 length=0.03 units=km
New Line.RBT_710971 phases=2 bus1=BT98211.2.4 bus2=UC710971.2.4 linecode=108_2 length=0.01841 units=km
New Line.RBT_731359 phases=2 bus1=ET7_1727.2.4 bus2=UC731359.2.4 linecode=108_2 length=0.00852 units=km
New Line.RBT_710810 phases=2 bus1=BT156871.2.4 bus2=UC710810.2.4 linecode=108_2 length=0.0082 units=km
New Line.RBT_722496 phases=3 bus1=ET7_1827.1.2.4 bus2=UC722496.1.2.4 linecode=83_3 length=0.01348 units=km
New Line.RBT_721542 phases=3 bus1=BT196521.1.2.4 bus2=UC721542.1.2.4 linecode=83_3 length=0.0273 units=km
New Line.RBT_710646 phases=2 bus1=BT196521.2.4 bus2=UC710646.2.4 linecode=50_2 length=0.02658 units=km
New Line.RBT_710647 phases=2 bus1=BT196541.2.4 bus2=UC710647.2.4 linecode=50_2 length=0.00844 units=km
New Line.RBT_710648 phases=2 bus1=ET7_1835.1.4 bus2=UC710648.1.4 linecode=50_2 length=0.027 units=km
New Line.RBT_710657 phases=3 bus1=BT206731.1.2.4 bus2=UC710657.1.2.4 linecode=83_3 length=0.003 units=km
New Line.RBT_721343 phases=2 bus1=BT188891.2.4 bus2=UC721343.2.4 linecode=50_2 length=0.03 units=km
New Line.RBT_719865 phases=2 bus1=BT379301.2.4 bus2=UC719865.2.4 linecode=50_2 length=0.01493 units=km
New Line.RBT_719878 phases=3 bus1=BT188891.1.2.4 bus2=UC719878.1.2.4 linecode=83_3 length=0.02748 units=km
New Line.RBT_718268 phases=2 bus1=BT379331.1.4 bus2=UC718268.1.4 linecode=108_2 length=0.01587 units=km
New Line.RBT_731059 phases=2 bus1=BT379341.2.4 bus2=UC731059.2.4 linecode=50_2 length=0.02086 units=km
New Line.RBT_731065 phases=2 bus1=BT379321.2.4 bus2=UC731065.2.4 linecode=105_2 length=0.013 units=km
New Line.RBT_731011 phases=2 bus1=BT594661.1.4 bus2=UC731011.1.4 linecode=108_2 length=0.00963 units=km
New Line.RBT_730097 phases=2 bus1=BT188881.2.4 bus2=UC730097.2.4 linecode=108_2 length=0.01 units=km
New Line.RBT_730439 phases=2 bus1=BT379301.2.4 bus2=UC730439.2.4 linecode=105_2 length=0.017 units=km
New Line.RBT_728672 phases=2 bus1=BT379301.1.4 bus2=UC728672.1.4 linecode=105_2 length=0.005 units=km
New Line.RBT_728007 phases=2 bus1=BT594661.1.4 bus2=UC728007.1.4 linecode=50_2 length=0.00722 units=km
New Line.RBT_728967 phases=2 bus1=BT379321.2.4 bus2=UC728967.2.4 linecode=50_2 length=0.00924 units=km
New Line.RBT_729572 phases=2 bus1=BT379341.1.4 bus2=UC729572.1.4 linecode=105_2 length=0.005 units=km
New Line.RBT_726621 phases=2 bus1=BT206731.2.4 bus2=UC726621.2.4 linecode=50_2 length=0.00437 units=km
New Line.RBT_727136 phases=2 bus1=BT379301.1.4 bus2=UC727136.1.4 linecode=108_2 length=0.02372 units=km
New Line.RBT_727144 phases=2 bus1=BT188901.2.4 bus2=UC727144.2.4 linecode=105_2 length=0.01508 units=km
New Line.RBT_727158 phases=2 bus1=BT188881.1.4 bus2=UC727158.1.4 linecode=50_2 length=0.01603 units=km
New Line.RBT_727159 phases=2 bus1=BT594661.1.4 bus2=UC727159.1.4 linecode=105_2 length=0.01 units=km
New Line.RBT_727160 phases=2 bus1=BT594661.1.4 bus2=UC727160.1.4 linecode=50_2 length=0.0101 units=km
New Line.RBT_723069 phases=2 bus1=BT379321.1.4 bus2=UC723069.1.4 linecode=108_2 length=0.00823 units=km
New Line.RBT_724167 phases=2 bus1=BT379311.1.4 bus2=UC724167.1.4 linecode=105_2 length=0.02 units=km
New Line.RBT_724174 phases=2 bus1=BT188901.1.4 bus2=UC724174.1.4 linecode=50_2 length=0.01159 units=km
New Line.RBT_724175 phases=2 bus1=BT379301.1.4 bus2=UC724175.1.4 linecode=105_2 length=0.019 units=km
New Line.RBT_724184 phases=2 bus1=BT188901.1.4 bus2=UC724184.1.4 linecode=50_2 length=0.02217 units=km
New Line.RBT_724194 phases=2 bus1=BT594671.1.4 bus2=UC724194.1.4 linecode=108_2 length=0.011 units=km
New Line.RBT_724715 phases=2 bus1=BT379331.2.4 bus2=UC724715.2.4 linecode=50_2 length=0.01878 units=km
New Line.RBT_731360 phases=2 bus1=BT379321.2.4 bus2=UC731360.2.4 linecode=108_2 length=0.01 units=km
New Line.RBT_731402 phases=2 bus1=BT137761.2.4 bus2=UC731402.2.4 linecode=105_2 length=0.015 units=km
New Line.RBT_731413 phases=2 bus1=BT188901.1.4 bus2=UC731413.1.4 linecode=105_2 length=0.02 units=km
New Line.RBT_731415 phases=2 bus1=BT379311.1.4 bus2=UC731415.1.4 linecode=105_2 length=0.012 units=km
New Line.RBT_731407 phases=2 bus1=BT137761.2.4 bus2=UC731407.2.4 linecode=105_2 length=0.005 units=km
New Line.RBT_731428 phases=2 bus1=BT594671.1.4 bus2=UC731428.1.4 linecode=105_2 length=0.02 units=km
New Line.RBT_731434 phases=2 bus1=BT188881.2.4 bus2=UC731434.2.4 linecode=105_2 length=0.028 units=km
New Line.RBT_731444 phases=2 bus1=BT188901.1.4 bus2=UC731444.1.4 linecode=105_2 length=0.017 units=km
New Line.RBT_731446 phases=2 bus1=BT188881.1.4 bus2=UC731446.1.4 linecode=50_2 length=0.01897 units=km
New Line.RBT_731451 phases=2 bus1=BT379331.1.4 bus2=UC731451.1.4 linecode=105_2 length=0.01 units=km
New Line.RBT_731456 phases=2 bus1=BT379331.2.4 bus2=UC731456.2.4 linecode=105_2 length=0.015 units=km
New Line.RBT_731457 phases=2 bus1=BT137761.1.4 bus2=UC731457.1.4 linecode=50_2 length=0.01574 units=km
New Line.RBT_733075 phases=2 bus1=BT206731.1.4 bus2=UC733075.1.4 linecode=50_2 length=0.03 units=km
New Line.RBT_735906 phases=2 bus1=BT379321.2.4 bus2=UC735906.2.4 linecode=108_2 length=0.015 units=km
New Line.RBT_737300 phases=2 bus1=BT188901.1.4 bus2=UC737300.1.4 linecode=105_2 length=0.015 units=km
New Line.RBT_710999 phases=2 bus1=BT89781.1.4 bus2=UC710999.1.4 linecode=50_2 length=0.01479 units=km
New Line.RBT_711224 phases=2 bus1=BT256201.1.4 bus2=UC711224.1.4 linecode=50_2 length=0.01408 units=km
New Line.RBT_711225 phases=4 bus1=ET7_2167.1.2.3.4 bus2=UC711225.1.2.3.4 linecode=51_4 length=0.019 units=km
New Line.RBT_733883 phases=2 bus1=BT371981.1.4 bus2=UC733883.1.4 linecode=50_2 length=0.02062 units=km
New Line.RBT_734654 phases=4 bus1=ET7_2167.1.2.3.4 bus2=UC734654.1.2.3.4 linecode=51_4 length=0.01948 units=km
New Line.RBT_732414 phases=2 bus1=BT261181.1.4 bus2=UC732414.1.4 linecode=105_2 length=0.03 units=km
New Line.RBT_711039 phases=3 bus1=BT261191.1.2.4 bus2=UC711039.1.2.4 linecode=83_3 length=0.01973 units=km
New Line.RBT_721459 phases=2 bus1=BT261191.2.4 bus2=UC721459.2.4 linecode=50_2 length=0.03 units=km
New Line.RBT_711050 phases=2 bus1=BT99841.2.4 bus2=UC711050.2.4 linecode=50_2 length=0.01252 units=km
New Line.RBT_719899 phases=2 bus1=BT192842.1.4 bus2=UC719899.1.4 linecode=50_2 length=0.03 units=km
New Line.RBT_711349 phases=2 bus1=BT192801.2.4 bus2=UC711349.2.4 linecode=50_2 length=0.00998 units=km
New Line.RBT_729580 phases=2 bus1=BT192831.1.4 bus2=UC729580.1.4 linecode=50_2 length=0.0165 units=km
New Line.RBT_731062 phases=2 bus1=BT192831.1.4 bus2=UC731062.1.4 linecode=50_2 length=0.02044 units=km