New Load.BT_2519178_M1 bus1=UC2519178.1.4 phases=1 conn=Wye model=2 kv=13.8 kw=0.157969 pf=0.92 daily=RU1_DU status=variable vmaxpu=1.5 vminpu=0.92
New Load.BT_2519178_M2 bus1=UC2519178.1.4 phases=1 conn=Wye model=3 kv=13.8 kw=0.157969 pf=0.92 daily=RU1_DU status=variable vmaxpu=1.5 vminpu=0.92
New Load.BT_2533903_M1 bus1=UC2533903.1.4 phases=1 conn=Wye model=2 kv=0.22 kw=0 pf=0.92 daily=RU3_DU status=variable vmaxpu=1.5 vminpu=0.92
New Load.BT_2533903_M2 bus1=UC2533903.1.4 phases=1 conn=Wye model=3 kv=0.22 kw=0 pf=0.92 daily=RU3_DU status=variable vmaxpu=1.5 vminpu=0.92
New Load.BT_2534183_M1 bus1=UC2534183.1.2.3.4 phases=3 conn=Delta model=2 kv=0.22 kw=1.59486 pf=0.92 daily=PP2_DU status=variable vmaxpu=1.5 vminpu=0.92
New Load.BT_2534183_M2 bus1=UC2534183.1.2.3.4 phases=3 conn=Delta model=3 kv=0.22 kw=1.59486 pf=0.92 daily=PP2_DU status=variable vmaxpu=1.5 vminpu=0.92
New Load.BT_2531956_M1 bus1=UC2531956.1.4 phases=1 conn=Wye model=2 kv=0.22 kw=0.451341 pf=0.92 daily=RU1_DU status=variable vmaxpu=1.5 vminpu=0.92
New Load.BT_2531956_M2 bus1=UC2531956.1.4 phases=1 conn=Wye model=3 kv=0.22 kw=0.451341 pf=0.92 daily=RU1_DU status=variable vmaxpu=1.5 vminpu=0.92
New Load.BT_2538561_M1 bus1=UC2538561.1.4 phases=1 conn=Wye model=2 kv=0.22 kw=0.2724025 pf=0.92 daily=RE5_DU status=variable vmaxpu=1.5 vminpu=0.92
New Load.BT_2538561_M2 bus1=UC2538561.1.4 phases=1 conn=Wye model=3 kv=0.22 kw=0.2724025 pf=0.92 daily=RE5_DU status=variable vmaxpu=1.5 vminpu=0.92
New Load.BT_413703_M1 bus1=UC413703.3.4 phases=1 conn=Wye model=2 kv=0.219393102 kw=0.1006315 pf=0.92 daily=RU3_DU status=variable vmaxpu=1.5 vminpu=0.92
New Load.BT_413703_M2 bus1=UC413703.3.4 phases=1 conn=Wye model=3 kv=0.219393102 kw=0.1006315 pf=0.92 daily=RU3_DU status=variable vmaxpu=1.5 vminpu=0.92
New Load.BT_413704_M1 bus1=UC413704.2.4 phases=1 conn=Wye model=2 kv=0.219393102 kw=0.064432 pf=0.92 daily=RU6_DU status=variable vmaxpu=1.5 vminpu=0.92
New Load.BT_413704_M2 bus1=UC413704.2.4 phases=1 conn=Wye model=3 kv=0.219393102 kw=0.064432 pf=0.92 daily=RU6_DU status=variable vmaxpu=1.5 vminpu=0.92
New Load.BT_413706_M1 bus1=UC413706.1.2.3.4 phases=3 conn=Delta model=2 kv=0.38 kw=0.3700995 pf=0.92 daily=RU1_DU status=variable vmaxpu=1.5 vminpu=0.92
New Load.BT_413706_M2 bus1=UC413706.1.2.3.4 phases=3 conn=Delta model=3 kv=0.38 kw=0.3700995 pf=0.92 daily=RU1_DU status=variable vmaxpu=1.5 vminpu=0.92
New Load.BT_433523_M1 bus1=UC433523.1.4 phases=1 conn=Wye model=2 kv=0.219393102 kw=0.1152995 pf=0.92 daily=RU6_DU status=variable vmaxpu=1.5 vminpu=0.92
New Load.BT_433523_M2 bus1=UC433523.1.4 phases=1 conn=Wye model=3 kv=0.219393102 kw=0.1152995 pf=0.92 daily=RU6_DU status=variable vmaxpu=1.5 vminpu=0.92
New Load.BT_438409_M1 bus1=UC438409.2.4 phases=1 conn=Wye model=2 kv=0.219393102 kw=0.0528255 pf=0.92 daily=RE1_DU status=variable vmaxpu=1.5 vminpu=0.92
New Load.BT_438409_M2 bus1=UC438409.2.4 phases=1 conn=Wye model=3 kv=0.219393102 kw=0.0528255 pf=0.92 daily=RE1_DU status=variable vmaxpu=1.5 vminpu=0.92
New Load.BT_IP934_M1 bus1=BT184721.1.4 phases=1 conn=Wye model=2 kv=0.219393102 kw=0.204713 pf=0.92 daily=IP1_DU status=variable vmaxpu=1.5 vminpu=0.92
New Load.BT_IP934_M2 bus1=BT184721.1.4 phases=1 conn=Wye model=3 kv=0.219393102 kw=0.204713 pf=0.92 daily=IP1_DU status=variable vmaxpu=1.5 vminpu=0.92
New Load.BT_IP935_M1 bus1=BT184711.1.4 phases=1 conn=Wye model=2 kv=0.219393102 kw=0.204713 pf=0.92 daily=IP1_DU status=variable vmaxpu=1.5 vminpu=0.92
New Load.BT_IP935_M2 bus1=BT184711.1.4 phases=1 conn=Wye model=3 kv=0.219393102 kw=0.204713 pf=0.92 daily=IP1_DU status=variable vmaxpu=1.5 vminpu=0.92
New Load.BT_IP936_M1 bus1=BT345781.1.4 phases=1 conn=Wye model=2 kv=0.219393102 kw=0.130187 pf=0.92 daily=IP1_DU status=variable vmaxpu=1.5 vminpu=0.92
New Load.BT_IP936_M2 bus1=BT345781.1.4 phases=1 conn=Wye model=3 kv=0.219393102 kw=0.130187 pf=0.92 daily=IP1_DU status=variable vmaxpu=1.5 vminpu=0.92
New Load.BT_433444_M1 bus1=UC433444.2.4 phases=1 conn=Wye model=2 kv=0.22 kw=0 pf=0.92 daily=RU6_DU status=variable vmaxpu=1.5 vminpu=0.92
New Load.BT_433444_M2 bus1=UC433444.2.4 phases=1 conn=Wye model=3 kv=0.22 kw=0 pf=0.92 daily=RU6_DU status=variable vmaxpu=1.5 vminpu=0.92
New Load.BT_413634_M1 bus1=UC413634.2.4 phases=1 conn=Wye model=2 kv=0.22 kw=0.434625 pf=0.92 daily=RU3_DU status=variable vmaxpu=1.5 vminpu=0.92
New Load.BT_413634_M2 bus1=UC413634.2.4 phases=1 conn=Wye model=3 kv=0.22 kw=0.434625 pf=0.92 daily=RU3_DU status=variable vmaxpu=1.5 vminpu=0.92
New Load.BT_413635_M1 bus1=UC413635.1.2.4 phases=1 conn=Delta model=2 kv=0.44 kw=0.023738 pf=0.92 daily=RU6_DU status=variable vmaxpu=1.5 vminpu=0.92
New Load.BT_413635_M2 bus1=UC413635.1.2.4 phases=1 conn=Delta model=3 kv=0.44 kw=0.023738 pf=0.92 daily=RU6_DU status=variable vmaxpu=1.5 vminpu=0.92
New Load.BT_413636_M1 bus1=UC413636.1.4 phases=1 conn=Wye model=2 kv=0.22 kw=0 pf=0.92 daily=RU5_DU status=variable vmaxpu=1.5 vminpu=0.92
New Load.BT_413636_M2 bus1=UC413636.1.4 phases=1 conn=Wye model=3 kv=0.22 kw=0 pf=0.92 daily=RU5_DU status=variable vmaxpu=1.5 vminpu=0.92
New Load.BT_413637_M1 bus1=UC413637.2.4 phases=1 conn=Wye model=2 kv=0.22 kw=0.126375 pf=0.92 daily=RU1_DU status=variable vmaxpu=1.5 vminpu=0.92
New Load.BT_413637_M2 bus1=UC413637.2.4 phases=1 conn=Wye model=3 kv=0.22 kw=0.126375 pf=0.92 daily=RU1_DU status=variable vmaxpu=1.5 vminpu=0.92
New Load.BT_418866_M1 bus1=UC418866.1.4 phases=1 conn=Wye model=2 kv=0.22 kw=0.135332 pf=0.92 daily=RU3_DU status=variable vmaxpu=1.5 vminpu=0.92
New Load.BT_418866_M2 bus1=UC418866.1.4 phases=1 conn=Wye model=3 kv=0.22 kw=0.135332 pf=0.92 daily=RU3_DU status=variable vmaxpu=1.5 vminpu=0.92
New Load.BT_422332_M1 bus1=UC422332.2.4 phases=1 conn=Wye model=2 kv=0.22 kw=0.1819925 pf=0.92 daily=RU6_DU status=variable vmaxpu=1.5 vminpu=0.92
New Load.BT_422332_M2 bus1=UC422332.2.4 phases=1 conn=Wye model=3 kv=0.22 kw=0.1819925 pf=0.92 daily=RU6_DU status=variable vmaxpu=1.5 vminpu=0.92
New Load.BT_422391_M1 bus1=UC422391.2.4 phases=1 conn=Wye model=2 kv=0.22 kw=0 pf=0.92 daily=RU2_DU status=variable vmaxpu=1.5 vminpu=0.92
New Load.BT_422391_M2 bus1=UC422391.2.4 phases=1 conn=Wye model=3 kv=0.22 kw=0 pf=0.92 daily=RU2_DU status=variable vmaxpu=1.5 vminpu=0.92
New Load.BT_411462_M1 bus1=UC411462.2.4 phases=1 conn=Wye model=2 kv=0.22 kw=0.125629 pf=0.92 daily=RU7_DU status=variable vmaxpu=1.5 vminpu=0.92
New Load.BT_411462_M2 bus1=UC411462.2.4 phases=1 conn=Wye model=3 kv=0.22 kw=0.125629 pf=0.92 daily=RU7_DU status=variable vmaxpu=1.5 vminpu=0.92
New Load.BT_413619_M1 bus1=UC413619.2.4 phases=1 conn=Wye model=2 kv=0.22 kw=0 pf=0.92 daily=RU5_DU status=variable vmaxpu=1.5 vminpu=0.92
New Load.BT_413619_M2 bus1=UC413619.2.4 phases=1 conn=Wye model=3 kv=0.22 kw=0 pf=0.92 daily=RU5_DU status=variable vmaxpu=1.5 vminpu=0.92
New Load.BT_413628_M1 bus1=UC413628.1.4 phases=1 conn=Wye model=2 kv=0.22 kw=0.001975 pf=0.92 daily=RU4_DU status=variable vmaxpu=1.5 vminpu=0.92
New Load.BT_413628_M2 bus1=UC413628.1.4 phases=1 conn=Wye model=3 kv=0.22 kw=0.001975 pf=0.92 daily=RU4_DU status=variable vmaxpu=1.5 vminpu=0.92
New Load.BT_413630_M1 bus1=UC413630.1.4 phases=1 conn=Wye model=2 kv=0.22 kw=0.14582 pf=0.92 daily=RU6_DU status=variable vmaxpu=1.5 vminpu=0.92
New Load.BT_413630_M2 bus1=UC413630.1.4 phases=1 conn=Wye model=3 kv=0.22 kw=0.14582 pf=0.92 daily=RU6_DU status=variable vmaxpu=1.5 vminpu=0.92
New Load.BT_433666_M1 bus1=UC433666.2.4 phases=1 conn=Wye model=2 kv=0.22 kw=0.314617 pf=0.92 daily=RU2_DU status=variable vmaxpu=1.5 vminpu=0.92
New Load.BT_433666_M2 bus1=UC433666.2.4 phases=1 conn=Wye model=3 kv=0.22 kw=0.314617 pf=0.92 daily=RU2_DU status=variable vmaxpu=1.5 vminpu=0.92
New Load.BT_437385_M1 bus1=UC437385.2.4 phases=1 conn=Wye model=2 kv=0.22 kw=0.453589 pf=0.92 daily=RU2_DU status=variable vmaxpu=1.5 vminpu=0.92
New Load.BT_437385_M2 bus1=UC437385.2.4 phases=1 conn=Wye model=3 kv=0.22 kw=0.453589 pf=0.92 daily=RU2_DU status=variable vmaxpu=1.5 vminpu=0.92
New Load.BT_413722_M1 bus1=UC413722.1.4 phases=1 conn=Wye model=2 kv=0.219393102 kw=0.2740525 pf=0.92 daily=RU5_DU status=variable vmaxpu=1.5 vminpu=0.92
New Load.BT_413722_M2 bus1=UC413722.1.4 phases=1 conn=Wye model=3 kv=0.219393102 kw=0.2740525 pf=0.92 daily=RU5_DU status=variable vmaxpu=1.5 vminpu=0.92
New Load.BT_413723_M1 bus1=UC413723.1.2.3.4 phases=3 conn=Delta model=2 kv=0.38 kw=0.0555665 pf=0.92 daily=RU7_DU status=variable vmaxpu=1.5 vminpu=0.92
New Load.BT_413723_M2 bus1=UC413723.1.2.3.4 phases=3 conn=Delta model=3 kv=0.38 kw=0.0555665 pf=0.92 daily=RU7_DU status=variable vmaxpu=1.5 vminpu=0.92
New Load.BT_413724_M1 bus1=UC413724.1.4 phases=1 conn=Wye model=2 kv=0.219393102 kw=0.14314 pf=0.92 daily=RU3_DU status=variable vmaxpu=1.5 vminpu=0.92
New Load.BT_413724_M2 bus1=UC413724.1.4 phases=1 conn=Wye model=3 kv=0.219393102 kw=0.14314 pf=0.92 daily=RU3_DU status=variable vmaxpu=1.5 vminpu=0.92
New Load.BT_413725_M1 bus1=UC413725.2.4 phases=1 conn=Wye model=2 kv=0.219393102 kw=0.045134 pf=0.92 daily=RU1_DU status=variable vmaxpu=1.5 vminpu=0.92
New Load.BT_413725_M2 bus1=UC413725.2.4 phases=1 conn=Wye model=3 kv=0.219393102 kw=0.045134 pf=0.92 daily=RU1_DU status=variable vmaxpu=1.5 vminpu=0.92
New Load.BT_413726_M1 bus1=UC413726.3.4 phases=1 conn=Wye model=2 kv=0.219393102 kw=0.0237035 pf=0.92 daily=RU4_DU status=variable vmaxpu=1.5 vminpu=0.92
New Load.BT_413726_M2 bus1=UC413726.3.4 phases=1 conn=Wye model=3 kv=0.219393102 kw=0.0237035 pf=0.92 daily=RU4_DU status=variable vmaxpu=1.5 vminpu=0.92
New Load.BT_413727_M1 bus1=UC413727.1.4 phases=1 conn=Wye model=2 kv=0.219393102 kw=0.134557 pf=0.92 daily=RU5_DU status=variable vmaxpu=1.5 vminpu=0.92
New Load.BT_413727_M2 bus1=UC413727.1.4 phases=1 conn=Wye model=3 kv=0.219393102 kw=0.134557 pf=0.92 daily=RU5_DU status=variable vmaxpu=1.5 vminpu=0.92
New Load.BT_413728_M1 bus1=UC413728.1.2.3.4 phases=3 conn=Delta model=2 kv=0.38 kw=1.00649 pf=0.92 daily=RU1_DU status=variable vmaxpu=1.5 vminpu=0.92
New Load.BT_413728_M2 bus1=UC413728.1.2.3.4 phases=3 conn=Delta model=3 kv=0.38 kw=1.00649 pf=0.92 daily=RU1_DU status=variable vmaxpu=1.5 vminpu=0.92
New Load.BT_413729_M1 bus1=UC413729.1.4 phases=1 conn=Wye model=2 kv=0.219393102 kw=0.1209515 pf=0.92 daily=RU6_DU status=variable vmaxpu=1.5 vminpu=0.92
New Load.BT_413729_M2 bus1=UC413729.1.4 phases=1 conn=Wye model=3 kv=0.219393102 kw=0.1209515 pf=0.92 daily=RU6_DU status=variable vmaxpu=1.5 vminpu=0.92
New Load.BT_413730_M1 bus1=UC413730.2.4 phases=1 conn=Wye model=2 kv=0.219393102 kw=0.169165 pf=0.92 daily=RU3_DU status=variable vmaxpu=1.5 vminpu=0.92
New Load.BT_413730_M2 bus1=UC413730.2.4 phases=1 conn=Wye model=3 kv=0.219393102 kw=0.169165 pf=0.92 daily=RU3_DU status=variable vmaxpu=1.5 vminpu=0.92
New Load.BT_413731_M1 bus1=UC413731.1.4 phases=1 conn=Wye model=2 kv=0.219393102 kw=0.2730335 pf=0.92 daily=RU8_DU status=variable vmaxpu=1.5 vminpu=0.92
New Load.BT_413731_M2 bus1=UC413731.1.4 phases=1 conn=Wye model=3 kv=0.219393102 kw=0.2730335 pf=0.92 daily=RU8_DU status=variable vmaxpu=1.5 vminpu=0.92
New Load.BT_419516_M1 bus1=UC419516.1.2.3.4 phases=3 conn=Delta model=2 kv=0.38 kw=0.294876 pf=0.92 daily=RU1_DU status=variable vmaxpu=1.5 vminpu=0.92
New Load.BT_419516_M2 bus1=UC419516.1.2.3.4 phases=3 conn=Delta model=3 kv=0.38 kw=0.294876 pf=0.92 daily=RU1_DU status=variable vmaxpu=1.5 vminpu=0.92
New Load.BT_413718_M1 bus1=UC413718.1.2.3.4 phases=3 conn=Delta model=2 kv=0.38 kw=0.4468785 pf=0.92 daily=PP2_DU status=variable vmaxpu=1.5 vminpu=0.92
New Load.BT_413718_M2 bus1=UC413718.1.2.3.4 phases=3 conn=Delta model=3 kv=0.38 kw=0.4468785 pf=0.92 daily=PP2_DU status=variable vmaxpu=1.5 vminpu=0.92
New Load.BT_432827_M1 bus1=UC432827.1.4 phases=1 conn=Wye model=2 kv=0.219393102 kw=0.2277595 pf=0.92 daily=RU2_DU status=variable vmaxpu=1.5 vminpu=0.92
New Load.BT_432827_M2 bus1=UC432827.1.4 phases=1 conn=Wye model=3 kv=0.219393102 kw=0.2277595 pf=0.92 daily=RU2_DU status=variable vmaxpu=1.5 vminpu=0.92
New Load.BT_IP6932_M1 bus1=BT749121.1.4 phases=1 conn=Wye model=2 kv=0.219393102 kw=0.204713 pf=0.92 daily=IP1_DU status=variable vmaxpu=1.5 vminpu=0.92
New Load.BT_IP6932_M2 bus1=BT749121.1.4 phases=1 conn=Wye model=3 kv=0.219393102 kw=0.204713 pf=0.92 daily=IP1_DU status=variable vmaxpu=1.5 vminpu=0.92
New Load.BT_IP948_M1 bus1=BT331291.1.4 phases=1 conn=Wye model=2 kv=0.219393102 kw=0.204713 pf=0.92 daily=IP1_DU status=variable vmaxpu=1.5 vminpu=0.92
New Load.BT_IP948_M2 bus1=BT331291.1.4 phases=1 conn=Wye model=3 kv=0.219393102 kw=0.204713 pf=0.92 daily=IP1_DU status=variable vmaxpu=1.5 vminpu=0.92
New Load.BT_IP950_M1 bus1=BT331141.1.4 phases=1 conn=Wye model=2 kv=0.219393102 kw=0.130187 pf=0.92 daily=IP1_DU status=variable vmaxpu=1.5 vminpu=0.92
New Load.BT_IP950_M2 bus1=BT331141.1.4 phases=1 conn=Wye model=3 kv=0.219393102 kw=0.130187 pf=0.92 daily=IP1_DU status=variable vmaxpu=1.5 vminpu=0.92
New Load.BT_IP951_M1 bus1=BT331151.1.4 phases=1 conn=Wye model=2 kv=0.219393102 kw=0.204713 pf=0.92 daily=IP1_DU status=variable vmaxpu=1.5 vminpu=0.92
New Load.BT_IP951_M2 bus1=BT331151.1.4 phases=1 conn=Wye model=3 kv=0.219393102 kw=0.204713 pf=0.92 daily=IP1_DU status=variable vmaxpu=1.5 vminpu=0.92
New Load.BT_IP952_M1 bus1=BT331161.1.4 phases=1 conn=Wye model=2 kv=0.219393102 kw=0.130187 pf=0.92 daily=IP1_DU status=variable vmaxpu=1.5 vminpu=0.92
New Load.BT_IP952_M2 bus1=BT331161.1.4 phases=1 conn=Wye model=3 kv=0.219393102 kw=0.130187 pf=0.92 daily=IP1_DU status=variable vmaxpu=1.5 vminpu=0.92
New Load.BT_IP953_M1 bus1=BT331172.1.4 phases=1 conn=Wye model=2 kv=0.219393102 kw=0.204713 pf=0.92 daily=IP1_DU status=variable vmaxpu=1.5 vminpu=0.92
New Load.BT_IP953_M2 bus1=BT331172.1.4 phases=1 conn=Wye model=3 kv=0.219393102 kw=0.204713 pf=0.92 daily=IP1_DU status=variable vmaxpu=1.5 vminpu=0.92
New Load.BT_413710_M1 bus1=UC413710.2.4 phases=1 conn=Wye model=2 kv=0.22 kw=0.5095635 pf=0.92 daily=RU2_DU status=variable vmaxpu=1.5 vminpu=0.92
New Load.BT_413710_M2 bus1=UC413710.2.4 phases=1 conn=Wye model=3 kv=0.22 kw=0.5095635 pf=0.92 daily=RU2_DU status=variable vmaxpu=1.5 vminpu=0.92
New Load.BT_413647_M1 bus1=UC413647.2.4 phases=1 conn=Wye model=2 kv=0.22 kw=0.1715095 pf=0.92 daily=RU1_DU status=variable vmaxpu=1.5 vminpu=0.92
New Load.BT_413647_M2 bus1=UC413647.2.4 phases=1 conn=Wye model=3 kv=0.22 kw=0.1715095 pf=0.92 daily=RU1_DU status=variable vmaxpu=1.5 vminpu=0.92
New Load.BT_434684_M1 bus1=UC434684.2.4 phases=1 conn=Wye model=2 kv=0.22 kw=0.0849385 pf=0.92 daily=RU4_DU status=variable vmaxpu=1.5 vminpu=0.92
New Load.BT_434684_M2 bus1=UC434684.2.4 phases=1 conn=Wye model=3 kv=0.22 kw=0.0849385 pf=0.92 daily=RU4_DU status=variable vmaxpu=1.5 vminpu=0.92
New Load.BT_413651_M1 bus1=UC413651.1.2.4 phases=1 conn=Delta model=2 kv=0.44 kw=0.110174 pf=0.92 daily=RU3_DU status=variable vmaxpu=1.5 vminpu=0.92
New Load.BT_413651_M2 bus1=UC413651.1.2.4 phases=1 conn=Delta model=3 kv=0.44 kw=0.110174 pf=0.92 daily=RU3_DU status=variable vmaxpu=1.5 vminpu=0.92
New Load.BT_413642_M1 bus1=UC413642.2.4 phases=1 conn=Wye model=2 kv=0.22 kw=0.3419485 pf=0.92 daily=RU5_DU status=variable vmaxpu=1.5 vminpu=0.92
New Load.BT_413642_M2 bus1=UC413642.2.4 phases=1 conn=Wye model=3 kv=0.22 kw=0.3419485 pf=0.92 daily=RU5_DU status=variable vmaxpu=1.5 vminpu=0.92
New Load.BT_417100_M1 bus1=UC417100.1.4 phases=1 conn=Wye model=2 kv=0.22 kw=0.086857 pf=0.92 daily=RU2_DU status=variable vmaxpu=1.5 vminpu=0.92
New Load.BT_417100_M2 bus1=UC417100.1.4 phases=1 conn=Wye model=3 kv=0.22 kw=0.086857 pf=0.92 daily=RU2_DU status=variable vmaxpu=1.5 vminpu=0.92
New Load.BT_413778_M1 bus1=UC413778.3.4 phases=1 conn=Wye model=2 kv=0.219393102 kw=0.3865935 pf=0.92 daily=RU6_DU status=variable vmaxpu=1.5 vminpu=0.92
New Load.BT_413778_M2 bus1=UC413778.3.4 phases=1 conn=Wye model=3 kv=0.219393102 kw=0.3865935 pf=0.92 daily=RU6_DU status=variable vmaxpu=1.5 vminpu=0.92
New Load.BT_413775_M1 bus1=UC413775.1.4 phases=1 conn=Wye model=2 kv=0.219393102 kw=0.079127 pf=0.92 daily=RU6_DU status=variable vmaxpu=1.5 vminpu=0.92
New Load.BT_413775_M2 bus1=UC413775.1.4 phases=1 conn=Wye model=3 kv=0.219393102 kw=0.079127 pf=0.92 daily=RU6_DU status=variable vmaxpu=1.5 vminpu=0.92
New Load.BT_423284_M1 bus1=UC423284.3.4 phases=1 conn=Wye model=2 kv=0.219393102 kw=0.6273035 pf=0.92 daily=RU2_DU status=variable vmaxpu=1.5 vminpu=0.92
New Load.BT_423284_M2 bus1=UC423284.3.4 phases=1 conn=Wye model=3 kv=0.219393102 kw=0.6273035 pf=0.92 daily=RU2_DU status=variable vmaxpu=1.5 vminpu=0.92
New Load.BT_2529387_M1 bus1=UC2529387.2.4 phases=1 conn=Wye model=2 kv=0.219393102 kw=0.0158025 pf=0.92 daily=RU4_DU status=variable vmaxpu=1.5 vminpu=0.92
New Load.BT_2529387_M2 bus1=UC2529387.2.4 phases=1 conn=Wye model=3 kv=0.219393102 kw=0.0158025 pf=0.92 daily=RU4_DU status=variable vmaxpu=1.5 vminpu=0.92
New Load.BT_413643_M1 bus1=UC413643.1.2.4 phases=1 conn=Delta model=2 kv=0.44 kw=0.015615 pf=0.92 daily=RU3_DU status=variable vmaxpu=1.5 vminpu=0.92
New Load.BT_413643_M2 bus1=UC413643.1.2.4 phases=1 conn=Delta model=3 kv=0.44 kw=0.015615 pf=0.92 daily=RU3_DU status=variable vmaxpu=1.5 vminpu=0.92
New Load.BT_423832_M1 bus1=UC423832.1.4 phases=1 conn=Wye model=2 kv=0.22 kw=0.4633765 pf=0.92 daily=RU1_DU status=variable vmaxpu=1.5 vminpu=0.92
New Load.BT_423832_M2 bus1=UC423832.1.4 phases=1 conn=Wye model=3 kv=0.22 kw=0.4633765 pf=0.92 daily=RU1_DU status=variable vmaxpu=1.5 vminpu=0.92
New Load.BT_401322_M1 bus1=UC401322.1.2.4 phases=1 conn=Delta model=2 kv=0.44 kw=0.106159 pf=0.92 daily=RU2_DU status=variable vmaxpu=1.5 vminpu=0.92
New Load.BT_401322_M2 bus1=UC401322.1.2.4 phases=1 conn=Delta model=3 kv=0.44 kw=0.106159 pf=0.92 daily=RU2_DU status=variable vmaxpu=1.5 vminpu=0.92
New Load.BT_419791_M1 bus1=UC419791.1.2.4 phases=1 conn=Delta model=2 kv=0.44 kw=0 pf=0.92 daily=RU3_DU status=variable vmaxpu=1.5 vminpu=0.92
New Load.BT_419791_M2 bus1=UC419791.1.2.4 phases=1 conn=Delta model=3 kv=0.44 kw=0 pf=0.92 daily=RU3_DU status=variable vmaxpu=1.5 vminpu=0.92
New Load.BT_423836_M1 bus1=UC423836.1.2.4 phases=1 conn=Delta model=2 kv=0.44 kw=0.004513 pf=0.92 daily=RU1_DU status=variable vmaxpu=1.5 vminpu=0.92
New Load.BT_423836_M2 bus1=UC423836.1.2.4 phases=1 conn=Delta model=3 kv=0.44 kw=0.004513 pf=0.92 daily=RU1_DU status=variable vmaxpu=1.5 vminpu=0.92
New Load.BT_419895_M1 bus1=UC419895.1.2.4 phases=1 conn=Delta model=2 kv=0.44 kw=0.4816595 pf=0.92 daily=RU8_DU status=variable vmaxpu=1.5 vminpu=0.92
New Load.BT_419895_M2 bus1=UC419895.1.2.4 phases=1 conn=Delta model=3 kv=0.44 kw=0.4816595 pf=0.92 daily=RU8_DU status=variable vmaxpu=1.5 vminpu=0.92
New Load.BT_422125_M1 bus1=UC422125.2.4 phases=1 conn=Wye model=2 kv=0.219393102 kw=0.219481 pf=0.92 daily=RU3_DU status=variable vmaxpu=1.5 vminpu=0.92
New Load.BT_422125_M2 bus1=UC422125.2.4 phases=1 conn=Wye model=3 kv=0.219393102 kw=0.219481 pf=0.92 daily=RU3_DU status=variable vmaxpu=1.5 vminpu=0.92
New Load.BT_417714_M1 bus1=UC417714.1.2.3.4 phases=3 conn=Delta model=2 kv=0.38 kw=0.3565445 pf=0.92 daily=RU4_DU status=variable vmaxpu=1.5 vminpu=0.92
New Load.BT_417714_M2 bus1=UC417714.1.2.3.4 phases=3 conn=Delta model=3 kv=0.38 kw=0.3565445 pf=0.92 daily=RU4_DU status=variable vmaxpu=1.5 vminpu=0.92
New Load.BT_418817_M1 bus1=UC418817.3.4 phases=1 conn=Wye model=2 kv=0.219393102 kw=0.217435 pf=0.92 daily=RU7_DU status=variable vmaxpu=1.5 vminpu=0.92
New Load.BT_418817_M2 bus1=UC418817.3.4 phases=1 conn=Wye model=3 kv=0.219393102 kw=0.217435 pf=0.92 daily=RU7_DU status=variable vmaxpu=1.5 vminpu=0.92
New Load.BT_422747_M1 bus1=UC422747.1.4 phases=1 conn=Wye model=2 kv=0.219393102 kw=0.067666 pf=0.92 daily=RU3_DU status=variable vmaxpu=1.5 vminpu=0.92
New Load.BT_422747_M2 bus1=UC422747.1.4 phases=1 conn=Wye model=3 kv=0.219393102 kw=0.067666 pf=0.92 daily=RU3_DU status=variable vmaxpu=1.5 vminpu=0.92
New Load.BT_422859_M1 bus1=UC422859.2.4 phases=1 conn=Wye model=2 kv=0.219393102 kw=0.2895245 pf=0.92 daily=RU2_DU status=variable vmaxpu=1.5 vminpu=0.92
New Load.BT_422859_M2 bus1=UC422859.2.4 phases=1 conn=Wye model=3 kv=0.219393102 kw=0.2895245 pf=0.92 daily=RU2_DU status=variable vmaxpu=1.5 vminpu=0.92
New Load.BT_422386_M1 bus1=UC422386.1.4 phases=1 conn=Wye model=2 kv=0.219393102 kw=0.1456675 pf=0.92 daily=RU5_DU status=variable vmaxpu=1.5 vminpu=0.92
New Load.BT_422386_M2 bus1=UC422386.1.4 phases=1 conn=Wye model=3 kv=0.219393102 kw=0.1456675 pf=0.92 daily=RU5_DU status=variable vmaxpu=1.5 vminpu=0.92
New Load.BT_423280_M1 bus1=UC423280.1.4 phases=1 conn=Wye model=2 kv=0.219393102 kw=0.1790315 pf=0.92 daily=RU1_DU status=variable vmaxpu=1.5 vminpu=0.92
New Load.BT_423280_M2 bus1=UC423280.1.4 phases=1 conn=Wye model=3 kv=0.219393102 kw=0.1790315 pf=0.92 daily=RU1_DU status=variable vmaxpu=1.5 vminpu=0.92
New Load.BT_423281_M1 bus1=UC423281.1.4 phases=1 conn=Wye model=2 kv=0.219393102 kw=0.275815 pf=0.92 daily=RU6_DU status=variable vmaxpu=1.5 vminpu=0.92
New Load.BT_423281_M2 bus1=UC423281.1.4 phases=1 conn=Wye model=3 kv=0.219393102 kw=0.275815 pf=0.92 daily=RU6_DU status=variable vmaxpu=1.5 vminpu=0.92
New Load.BT_424130_M1 bus1=UC424130.2.4 phases=1 conn=Wye model=2 kv=0.219393102 kw=0.1872355 pf=0.92 daily=RU7_DU status=variable vmaxpu=1.5 vminpu=0.92
New Load.BT_424130_M2 bus1=UC424130.2.4 phases=1 conn=Wye model=3 kv=0.219393102 kw=0.1872355 pf=0.92 daily=RU7_DU status=variable vmaxpu=1.5 vminpu=0.92
New Load.BT_424660_M1 bus1=UC424660.2.4 phases=1 conn=Wye model=2 kv=0.219393102 kw=0.154413 pf=0.92 daily=RU2_DU status=variable vmaxpu=1.5 vminpu=0.92
New Load.BT_424660_M2 bus1=UC424660.2.4 phases=1 conn=Wye model=3 kv=0.219393102 kw=0.154413 pf=0.92 daily=RU2_DU status=variable vmaxpu=1.5 vminpu=0.92
New Load.BT_425019_M1 bus1=UC425019.1.4 phases=1 conn=Wye model=2 kv=0.219393102 kw=0.163951 pf=0.92 daily=RU4_DU status=variable vmaxpu=1.5 vminpu=0.92
New Load.BT_425019_M2 bus1=UC425019.1.4 phases=1 conn=Wye model=3 kv=0.219393102 kw=0.163951 pf=0.92 daily=RU4_DU status=variable vmaxpu=1.5 vminpu=0.92
New Load.BT_425215_M1 bus1=UC425215.3.4 phases=1 conn=Wye model=2 kv=0.219393102 kw=0.3752895 pf=0.92 daily=RU6_DU status=variable vmaxpu=1.5 vminpu=0.92
New Load.BT_425215_M2 bus1=UC425215.3.4 phases=1 conn=Wye model=3 kv=0.219393102 kw=0.3752895 pf=0.92 daily=RU6_DU status=variable vmaxpu=1.5 vminpu=0.92
New Load.BT_426402_M1 bus1=UC426402.2.4 phases=1 conn=Wye model=2 kv=0.219393102 kw=0.0612345 pf=0.92 daily=RU4_DU status=variable vmaxpu=1.5 vminpu=0.92
New Load.BT_426402_M2 bus1=UC426402.2.4 phases=1 conn=Wye model=3 kv=0.219393102 kw=0.0612345 pf=0.92 daily=RU4_DU status=variable vmaxpu=1.5 vminpu=0.92
New Load.BT_432135_M1 bus1=UC432135.1.4 phases=1 conn=Wye model=2 kv=0.219393102 kw=0.266772 pf=0.92 daily=RU6_DU status=variable vmaxpu=1.5 vminpu=0.92
New Load.BT_432135_M2 bus1=UC432135.1.4 phases=1 conn=Wye model=3 kv=0.219393102 kw=0.266772 pf=0.92 daily=RU6_DU status=variable vmaxpu=1.5 vminpu=0.92
New Load.BT_430662_M1 bus1=UC430662.2.4 phases=1 conn=Wye model=2 kv=0.219393102 kw=0 pf=0.92 daily=CO3_DU status=variable vmaxpu=1.5 vminpu=0.92
New Load.BT_430662_M2 bus1=UC430662.2.4 phases=1 conn=Wye model=3 kv=0.219393102 kw=0 pf=0.92 daily=CO3_DU status=variable vmaxpu=1.5 vminpu=0.92
New Load.BT_429478_M1 bus1=UC429478.3.4 phases=1 conn=Wye model=2 kv=0.219393102 kw=0.1763405 pf=0.92 daily=RU6_DU status=variable vmaxpu=1.5 vminpu=0.92
New Load.BT_429478_M2 bus1=UC429478.3.4 phases=1 conn=Wye model=3 kv=0.219393102 kw=0.1763405 pf=0.92 daily=RU6_DU status=variable vmaxpu=1.5 vminpu=0.92
New Load.BT_429832_M1 bus1=UC429832.1.4 phases=1 conn=Wye model=2 kv=0.219393102 kw=0.2452285 pf=0.92 daily=RU1_DU status=variable vmaxpu=1.5 vminpu=0.92
New Load.BT_429832_M2 bus1=UC429832.1.4 phases=1 conn=Wye model=3 kv=0.219393102 kw=0.2452285 pf=0.92 daily=RU1_DU status=variable vmaxpu=1.5 vminpu=0.92
New Load.BT_400772_M1 bus1=UC400772.3.4 phases=1 conn=Wye model=2 kv=0.219393102 kw=0.2220835 pf=0.92 daily=RU3_DU status=variable vmaxpu=1.5 vminpu=0.92
New Load.BT_400772_M2 bus1=UC400772.3.4 phases=1 conn=Wye model=3 kv=0.219393102 kw=0.2220835 pf=0.92 daily=RU3_DU status=variable vmaxpu=1.5 vminpu=0.92
New Load.BT_413760_M1 bus1=UC413760.1.4 phases=1 conn=Wye model=2 kv=0.219393102 kw=0.264511 pf=0.92 daily=RU6_DU status=variable vmaxpu=1.5 vminpu=0.92
New Load.BT_413760_M2 bus1=UC413760.1.4 phases=1 conn=Wye model=3 kv=0.219393102 kw=0.264511 pf=0.92 daily=RU6_DU status=variable vmaxpu=1.5 vminpu=0.92
New Load.BT_413761_M1 bus1=UC413761.2.4 phases=1 conn=Wye model=2 kv=0.219393102 kw=0 pf=0.92 daily=RU1_DU status=variable vmaxpu=1.5 vminpu=0.92
New Load.BT_413761_M2 bus1=UC413761.2.4 phases=1 conn=Wye model=3 kv=0.219393102 kw=0 pf=0.92 daily=RU1_DU status=variable vmaxpu=1.5 vminpu=0.92
New Load.BT_413762_M1 bus1=UC413762.1.2.3.4 phases=3 conn=Delta model=2 kv=0.38 kw=1.124622 pf=0.92 daily=RU7_DU status=variable vmaxpu=1.5 vminpu=0.92
New Load.BT_413762_M2 bus1=UC413762.1.2.3.4 phases=3 conn=Delta model=3 kv=0.38 kw=1.124622 pf=0.92 daily=RU7_DU status=variable vmaxpu=1.5 vminpu=0.92
New Load.BT_413763_M1 bus1=UC413763.2.4 phases=1 conn=Wye model=2 kv=0.219393102 kw=0.2657535 pf=0.92 daily=RU7_DU status=variable vmaxpu=1.5 vminpu=0.92
New Load.BT_413763_M2 bus1=UC413763.2.4 phases=1 conn=Wye model=3 kv=0.219393102 kw=0.2657535 pf=0.92 daily=RU7_DU status=variable vmaxpu=1.5 vminpu=0.92
New Load.BT_413764_M1 bus1=UC413764.2.4 phases=1 conn=Wye model=2 kv=0.219393102 kw=0.15214 pf=0.92 daily=RE7_DU status=variable vmaxpu=1.5 vminpu=0.92
New Load.BT_413764_M2 bus1=UC413764.2.4 phases=1 conn=Wye model=3 kv=0.219393102 kw=0.15214 pf=0.92 daily=RE7_DU status=variable vmaxpu=1.5 vminpu=0.92
New Load.BT_413765_M1 bus1=UC413765.1.4 phases=1 conn=Wye model=2 kv=0.219393102 kw=0.414451 pf=0.92 daily=RU8_DU status=variable vmaxpu=1.5 vminpu=0.92
New Load.BT_413765_M2 bus1=UC413765.1.4 phases=1 conn=Wye model=3 kv=0.219393102 kw=0.414451 pf=0.92 daily=RU8_DU status=variable vmaxpu=1.5 vminpu=0.92
New Load.BT_413766_M1 bus1=UC413766.2.4 phases=1 conn=Wye model=2 kv=0.219393102 kw=0.421582 pf=0.92 daily=RU7_DU status=variable vmaxpu=1.5 vminpu=0.92
New Load.BT_413766_M2 bus1=UC413766.2.4 phases=1 conn=Wye model=3 kv=0.219393102 kw=0.421582 pf=0.92 daily=RU7_DU status=variable vmaxpu=1.5 vminpu=0.92
New Load.BT_413767_M1 bus1=UC413767.1.4 phases=1 conn=Wye model=2 kv=0.219393102 kw=0.0908645 pf=0.92 daily=RU4_DU status=variable vmaxpu=1.5 vminpu=0.92
New Load.BT_413767_M2 bus1=UC413767.1.4 phases=1 conn=Wye model=3 kv=0.219393102 kw=0.0908645 pf=0.92 daily=RU4_DU status=variable vmaxpu=1.5 vminpu=0.92
New Load.BT_413768_M1 bus1=UC413768.1.4 phases=1 conn=Wye model=2 kv=0.219393102 kw=0.294876 pf=0.92 daily=RU1_DU status=variable vmaxpu=1.5 vminpu=0.92
New Load.BT_413768_M2 bus1=UC413768.1.4 phases=1 conn=Wye model=3 kv=0.219393102 kw=0.294876 pf=0.92 daily=RU1_DU status=variable vmaxpu=1.5 vminpu=0.92
New Load.BT_413769_M1 bus1=UC413769.1.4 phases=1 conn=Wye model=2 kv=0.219393102 kw=0.078518 pf=0.92 daily=RU7_DU status=variable vmaxpu=1.5 vminpu=0.92
New Load.BT_413769_M2 bus1=UC413769.1.4 phases=1 conn=Wye model=3 kv=0.219393102 kw=0.078518 pf=0.92 daily=RU7_DU status=variable vmaxpu=1.5 vminpu=0.92
New Load.BT_413770_M1 bus1=UC413770.1.4 phases=1 conn=Wye model=2 kv=0.219393102 kw=0.183704 pf=0.92 daily=RU4_DU status=variable vmaxpu=1.5 vminpu=0.92
New Load.BT_413770_M2 bus1=UC413770.1.4 phases=1 conn=Wye model=3 kv=0.219393102 kw=0.183704 pf=0.92 daily=RU4_DU status=variable vmaxpu=1.5 vminpu=0.92
New Load.BT_413771_M1 bus1=UC413771.3.4 phases=1 conn=Wye model=2 kv=0.219393102 kw=0.4777405 pf=0.92 daily=RU5_DU status=variable vmaxpu=1.5 vminpu=0.92
New Load.BT_413771_M2 bus1=UC413771.3.4 phases=1 conn=Wye model=3 kv=0.219393102 kw=0.4777405 pf=0.92 daily=RU5_DU status=variable vmaxpu=1.5 vminpu=0.92
New Load.BT_434187_M1 bus1=UC434187.2.4 phases=1 conn=Wye model=2 kv=0.219393102 kw=0.229628 pf=0.92 daily=RU8_DU status=variable vmaxpu=1.5 vminpu=0.92
New Load.BT_434187_M2 bus1=UC434187.2.4 phases=1 conn=Wye model=3 kv=0.219393102 kw=0.229628 pf=0.92 daily=RU8_DU status=variable vmaxpu=1.5 vminpu=0.92
New Load.BT_433255_M1 bus1=UC433255.2.4 phases=1 conn=Wye model=2 kv=0.219393102 kw=0.1093065 pf=0.92 daily=RU3_DU status=variable vmaxpu=1.5 vminpu=0.92
New Load.BT_433255_M2 bus1=UC433255.2.4 phases=1 conn=Wye model=3 kv=0.219393102 kw=0.1093065 pf=0.92 daily=RU3_DU status=variable vmaxpu=1.5 vminpu=0.92
New Load.BT_433084_M1 bus1=UC433084.2.4 phases=1 conn=Wye model=2 kv=0.219393102 kw=0.4401315 pf=0.92 daily=RE5_DU status=variable vmaxpu=1.5 vminpu=0.92
New Load.BT_433084_M2 bus1=UC433084.2.4 phases=1 conn=Wye model=3 kv=0.219393102 kw=0.4401315 pf=0.92 daily=RE5_DU status=variable vmaxpu=1.5 vminpu=0.92
New Load.BT_433089_M1 bus1=UC433089.2.4 phases=1 conn=Wye model=2 kv=0.219393102 kw=0.111909 pf=0.92 daily=RU3_DU status=variable vmaxpu=1.5 vminpu=0.92
New Load.BT_433089_M2 bus1=UC433089.2.4 phases=1 conn=Wye model=3 kv=0.219393102 kw=0.111909 pf=0.92 daily=RU3_DU status=variable vmaxpu=1.5 vminpu=0.92
New Load.BT_438411_M1 bus1=UC438411.1.2.3.4 phases=3 conn=Delta model=2 kv=0.38 kw=1.036554 pf=0.92 daily=CO4_DU status=variable vmaxpu=1.5 vminpu=0.92
New Load.BT_438411_M2 bus1=UC438411.1.2.3.4 phases=3 conn=Delta model=3 kv=0.38 kw=1.036554 pf=0.92 daily=CO4_DU status=variable vmaxpu=1.5 vminpu=0.92
New Load.BT_436464_M1 bus1=UC436464.2.4 phases=1 conn=Wye model=2 kv=0.219393102 kw=0.2270985 pf=0.92 daily=RU7_DU status=variable vmaxpu=1.5 vminpu=0.92
New Load.BT_436464_M2 bus1=UC436464.2.4 phases=1 conn=Wye model=3 kv=0.219393102 kw=0.2270985 pf=0.92 daily=RU7_DU status=variable vmaxpu=1.5 vminpu=0.92
New Load.BT_438831_M1 bus1=UC438831.2.4 phases=1 conn=Wye model=2 kv=0.219393102 kw=0.138272 pf=0.92 daily=RU4_DU status=variable vmaxpu=1.5 vminpu=0.92
New Load.BT_438831_M2 bus1=UC438831.2.4 phases=1 conn=Wye model=3 kv=0.219393102 kw=0.138272 pf=0.92 daily=RU4_DU status=variable vmaxpu=1.5 vminpu=0.92